<?xml version="1.0" encoding="UTF-8"?>

<!-- generated on Tue Apr 28 17:29:10 2020 by Eclipse sumo polyconvert Version 1.5.0
<configuration xmlns:xsi="http://www.w3.org/2001/XMLSchema-instance" xsi:noNamespaceSchemaLocation="http://sumo.dlr.de/xsd/polyconvertConfiguration.xsd">

    <input>
        <net-file value="osm.net.xml"/>
        <osm-files value="osm_bbox.osm.xml"/>
        <osm.keep-full-type value="true"/>
        <type-file value="/usr/share/sumo/simple_example/typemap/osmPolyconvert.typ.xml"/>
    </input>

    <output>
        <output-file value="osm.poly.xml"/>
    </output>

    <processing>
        <poi-layer-offset value="5"/>
    </processing>

    <report>
        <verbose value="true"/>
    </report>

</configuration>
-->

<additional xmlns:xsi="http://www.w3.org/2001/XMLSchema-instance" xsi:noNamespaceSchemaLocation="http://sumo.dlr.de/xsd/additional_file.xsd">
    <location netOffset="-578523.66,-6229762.86" convBoundary="-704.64,-431.47,2078.61,4348.13" origBoundary="10.254480,56.202502,10.300594,56.245021" projParameter="+proj=utm +zone=32 +ellps=WGS84 +datum=WGS84 +units=m +no_defs"/>

    <poly id="100482020" type="landuse.retail" color="194,194,130" fill="1" layer="-3.00" shape="788.628226,706.481275 694.905669,524.891861 642.494152,449.364184 601.518925,399.142325 555.232127,350.570506 516.700535,316.069786 466.946760,276.051723 487.766645,240.955977 652.433352,354.896535 643.835086,364.211396 687.050272,398.343622 718.258979,428.468581 739.188851,453.783065 748.767143,468.244135 780.905837,520.429936 859.720274,462.576560 942.566480,629.884421 902.002415,654.324368 938.631458,708.409546 907.329023,728.935811 946.885231,795.054476 980.805233,873.615506 1046.427664,1029.350139 1026.694473,1038.991350 1041.954957,1087.336158 986.688973,1115.286774 788.628226,706.481275"/>
    <poly id="100482023" type="building.yes" color="255,230,230" fill="1" layer="-1.00" shape="867.622649,822.171025 878.170590,817.089934 887.993134,837.367268 901.189006,831.010607 894.240397,816.664802 905.389544,811.283224 911.692532,824.314502 924.293935,818.236320 913.808549,796.577237 924.801074,791.281861 940.705175,824.141196 905.655659,841.035276 905.088000,839.866907 892.123887,846.105398 892.601831,847.093972 882.135394,852.132009 867.622649,822.171025"/>
    <poly id="100680403" type="leisure.park" color="207,245,201" fill="1" layer="-2.00" shape="1009.763277,-33.199410 963.483004,-68.126570 951.540958,-79.303294 918.984922,-118.862193 918.402430,-127.590062 898.523154,-110.347097 903.032216,-106.556099 974.724745,-46.319788 1011.027623,-11.433356 1030.901391,18.316040 1052.574727,42.042731 1062.772148,58.575606 1105.973597,159.420141 1048.242838,183.461237 1134.614884,376.254842 1183.701581,471.309556 1240.518007,563.959673 1299.365731,639.392520 1408.029416,775.919731 1442.450782,829.233382 1470.733968,883.300840 1569.971066,1098.499689 1575.936955,1096.284692 1586.925500,1098.160560 1635.175024,1052.596136 1632.215567,1050.959761 1644.564253,1037.542333 1608.096219,970.194439 1587.956396,926.632246 1566.401120,883.099308 1549.870141,817.728700 1535.536329,744.327939 1545.675774,704.138651 1559.931171,675.081494 1566.878194,660.928068 1465.873735,633.765299 1463.872219,643.914487 1437.679134,637.557449 1429.054751,664.126324 1418.156889,690.185118 1360.942426,666.281999 1347.291823,648.759780 1333.579218,623.922117 1326.685541,606.359195 1330.571316,549.787451 1290.100458,557.103102 1255.386550,497.962835 1281.562293,463.093200 1258.638579,448.704693 1241.016234,442.475444 1221.550762,435.599581 1199.286412,418.440472 1191.114984,400.475453 1193.515034,306.024051 1167.844144,263.529918 1178.797273,247.123777 1181.495039,236.542138 1184.344287,217.502314 1195.619827,193.131060 1202.382082,142.602407 1302.469456,139.159336 1300.168097,126.825636 1270.642975,127.933365 1247.146858,125.168186 1225.301979,118.370422 1190.171913,101.272070 1185.463758,94.871944 1009.763277,-33.199410"/>
    <poly id="100680419" type="landuse.farmland" color="194,194,130" fill="1" layer="-3.00" shape="396.538051,593.930575 228.880938,522.594612 233.721406,472.686161 239.405527,457.817192 242.250303,429.692365 240.207770,414.269144 244.977093,376.316072 254.372333,340.196092 272.455174,303.011611 307.370755,323.082028 318.320031,299.626610 329.961631,305.251857 355.609230,256.606793 405.357397,294.641775 469.726753,348.911987 513.994761,392.291018 499.844219,442.205274 456.734124,497.718708 523.229458,544.514430 585.032381,501.816302 595.469962,503.055933 626.280962,533.540255 664.793024,600.761217 674.451526,625.287735 683.462725,634.850827 724.416950,746.604641 502.055133,822.032795 319.195318,890.363147 328.406661,945.251057 275.575912,957.714230 232.609867,973.176393 219.474134,940.315142 137.548428,947.390247 88.003468,908.393382 144.369669,829.552119 207.532846,869.535178 235.220862,831.792719 396.538051,593.930575"/>
    <poly id="102030193" type="landuse.farmland" color="194,194,130" fill="1" layer="-3.00" shape="265.105404,1254.824254 224.325505,1277.039840 242.355956,1315.535515 190.154410,1340.914200 237.161081,1412.974793 273.405534,1468.472209 136.761309,2139.727186 466.546816,2135.869119 553.390563,2160.798792 568.341881,2256.373135 512.938835,2262.873807 541.188496,2474.988363 1255.520613,2458.063328 1322.903814,2343.394589 1338.941000,2315.216211 1357.222225,2298.713780 1380.443905,2289.974418 1432.703095,2276.568226 1370.762762,2135.412681 1356.995287,2119.101569 1342.173192,2105.453835 1376.077497,2084.022139 1379.587989,2075.392943 1375.814307,2062.274558 1349.234917,2013.672175 1364.521914,2007.445162 1341.824932,1960.819158 1328.181119,1966.397850 1321.380734,1954.592319 1334.228113,1946.827796 1181.809414,1630.757041 1170.892315,1635.095689 1164.286839,1623.761657 1175.504231,1617.291069 1125.472885,1514.770396 1113.716049,1517.891190 1103.808701,1499.982978 1115.223950,1492.892470 1021.579783,1303.492126 1010.224065,1307.032599 1002.127382,1293.110531 1013.927193,1287.707969 853.665462,960.405083 838.298638,961.422315 831.102992,944.344463 842.285837,938.796363 810.437362,886.904803 796.043667,873.912808 785.938699,866.834064 773.213251,842.829273 724.416950,746.604641 502.055133,822.032795 517.597012,903.167051 540.568679,898.181279 559.094104,965.866726 531.551844,968.441089 489.624225,990.098641 488.288295,1066.400932 399.474232,1065.639704 329.509519,1065.049867 226.923353,1088.218758 195.695342,1111.111614 188.689822,1188.355951 210.256122,1229.922452 265.105404,1254.824254"/>
    <poly id="173637500" type="building.yes" color="255,230,230" fill="1" layer="-1.00" shape="787.562243,643.549546 759.352058,587.005620 794.019492,569.713569 822.229556,626.246596 787.562243,643.549546"/>
    <poly id="183320194" type="building.yes" color="255,230,230" fill="1" layer="-1.00" shape="473.039072,869.735233 474.994743,881.405222 491.105986,878.719376 489.150357,867.049379 473.039072,869.735233"/>
    <poly id="183320196" type="building.yes" color="255,230,230" fill="1" layer="-1.00" shape="347.792212,897.893237 349.502891,906.719761 362.683081,904.179748 360.978630,895.353334 347.792212,897.893237"/>
    <poly id="183320198" type="building.yes" color="255,230,230" fill="1" layer="-1.00" shape="480.375104,921.260136 482.173742,932.025466 497.363673,929.500747 495.559076,918.724167 480.375104,921.260136"/>
    <poly id="183320202" type="building.yes" color="255,230,230" fill="1" layer="-1.00" shape="466.908678,884.228277 469.624493,900.421122 481.460529,898.446678 478.744757,882.253824 466.908678,884.228277"/>
    <poly id="183320203" type="building.yes" color="255,230,230" fill="1" layer="-1.00" shape="503.764886,872.507443 491.219513,874.591179 493.923663,890.739295 506.469197,888.644438 503.764886,872.507443"/>
    <poly id="183320205" type="building.yes" color="255,230,230" fill="1" layer="-1.00" shape="336.810918,908.689912 342.842836,938.514799 352.787011,936.516232 346.755159,906.691330 336.810918,908.689912"/>
    <poly id="183320207" type="building.yes" color="255,230,230" fill="1" layer="-1.00" shape="494.788104,903.713936 497.537099,920.118941 509.329479,918.154900 506.580527,901.749888 494.788104,903.713936"/>
    <poly id="183320208" type="building.yes" color="255,230,230" fill="1" layer="-1.00" shape="464.585149,869.634683 466.501750,881.070156 471.181444,880.288265 469.271057,868.852905 464.585149,869.634683"/>
    <poly id="183320212" type="building.yes" color="255,230,230" fill="1" layer="-1.00" shape="466.440377,906.886147 468.948720,921.883942 480.286923,919.989359 477.772416,904.991443 466.440377,906.886147"/>
    <poly id="183320214" type="building.yes" color="255,230,230" fill="1" layer="-1.00" shape="440.113842,906.433166 438.503644,903.931926 435.993693,902.449424 432.721662,901.921408 430.333861,902.222425 428.373052,903.588951 426.199958,907.044537 425.940568,911.348166 423.100707,911.941426 423.210969,912.689364 424.827501,912.496561 425.366710,915.211806 427.674292,914.887039 430.768733,931.075718 430.699658,930.784987 406.737362,936.354224 406.210063,932.993495 411.734749,932.138080 409.914137,920.537414 405.751904,921.184197 403.104626,904.291293 401.623928,895.446725 389.560109,897.328123 391.169163,907.622327 392.593856,907.403705 395.013412,922.856258 393.694357,923.065697 395.508809,934.666242 403.354286,933.441746 403.914892,937.014614 395.354261,939.005206 398.297908,951.606292 433.643414,943.374969 432.924540,940.311285 443.246061,938.709547 445.644101,953.972479 480.509949,948.538164 477.269961,927.815676 451.008301,931.917167 449.088709,919.635547 463.361060,917.416608 462.118103,909.478171 445.039748,912.135125 444.947274,909.416997 441.175624,909.069003 440.113842,906.433166"/>
    <poly id="183320217" type="building.yes" color="255,230,230" fill="1" layer="-1.00" shape="335.099012,924.478127 336.132584,924.274537 333.821589,912.342009 332.794215,912.545715 331.043789,903.518074 325.278703,904.625215 329.333952,925.585263 335.099012,924.478127"/>
    <poly id="183320222" type="building.yes" color="255,230,230" fill="1" layer="-1.00" shape="374.626420,925.630535 373.427811,919.986317 370.409361,906.727032 362.759053,908.467303 367.063376,927.350142 368.446498,927.030549 369.175359,930.227999 375.355482,928.816858 374.626420,925.630535"/>
    <poly id="217518547" type="building.yes" color="255,230,230" fill="1" layer="-1.00" shape="755.959390,576.911977 785.510617,562.508599 764.318508,520.934989 734.773252,534.670655 755.959390,576.911977"/>
    <poly id="41763999" type="amenity.parking" color="184,184,179" fill="1" layer="-1.00" shape="946.031318,665.774494 937.585208,649.875582 1169.781996,504.426546 1178.009714,516.369672 946.031318,665.774494"/>
    <poly id="41764537" type="leisure.stadium" color="207,245,201" fill="1" layer="-2.00" shape="1204.709291,683.594043 1263.069732,646.786355 1194.648286,538.745317 1136.287234,575.542811 1204.709291,683.594043"/>
    <poly id="41764537#1" type="sport.soccer" color="79,230,125" fill="1" layer="-2.00" shape="1204.709291,683.594043 1263.069732,646.786355 1194.648286,538.745317 1136.287234,575.542811 1204.709291,683.594043"/>
    <poly id="41768020" type="amenity.school" color="237,199,199" fill="1" layer="-1.00" shape="1010.140923,808.710834 1123.241940,739.265286 1271.884399,645.203001 1190.557763,514.221167 932.012026,678.016163 1010.140923,808.710834"/>
    <poly id="42203309" type="leisure.park" color="207,245,201" fill="1" layer="-2.00" shape="826.304725,465.173663 839.903715,457.210002 819.807749,427.780184 819.023308,414.550890 763.807438,317.305092 749.846785,308.952628 719.772460,265.121647 681.086809,309.971708 677.106251,317.523991 746.840255,315.164697 758.293496,348.987220 763.193827,348.721836 770.323069,366.777986 773.289061,380.147920 793.606780,376.917736 826.304725,465.173663"/>
    <poly id="42348983" type="amenity.parking" color="184,184,179" fill="1" layer="-1.00" shape="910.939150,586.390481 919.245645,582.436784 876.804205,493.475847 868.491587,497.418383 910.939150,586.390481"/>
    <poly id="42792697" type="amenity.school" color="237,199,199" fill="1" layer="-1.00" shape="235.220862,831.792719 396.538051,593.930575 228.880938,522.594612 218.525950,626.685266 202.632719,688.580657 179.448081,747.224663 160.937427,781.161960 144.369669,829.552119 207.532846,869.535178 235.220862,831.792719"/>
    <poly id="440922018" type="building.yes" color="255,230,230" fill="1" layer="-1.00" shape="311.893396,713.750420 324.718639,694.493312 309.812841,684.599636 296.987638,703.856788 311.893396,713.750420"/>
    <poly id="561096843" type="building.terrace" color="255,230,230" fill="1" layer="-1.00" shape="887.901419,482.916445 936.197508,458.820415 926.840435,440.165919 878.550399,464.262171 887.901419,482.916445"/>
    <poly id="561096844" type="building.terrace" color="255,230,230" fill="1" layer="-1.00" shape="906.274490,519.550978 954.570283,495.455156 946.703335,479.756264 898.413618,503.852290 906.274490,519.550978"/>
    <poly id="561096845" type="building.terrace" color="255,230,230" fill="1" layer="-1.00" shape="923.999322,555.327454 972.294826,531.231833 962.938082,512.577254 914.648630,536.673096 923.999322,555.327454"/>
    <poly id="561096846" type="building.terrace" color="255,230,230" fill="1" layer="-1.00" shape="942.388700,592.051528 990.683909,567.956117 981.333533,549.301611 933.038175,573.397128 942.388700,592.051528"/>
    <poly id="561096862" type="building.yes" color="255,230,230" fill="1" layer="-1.00" shape="954.557437,944.656337 969.130271,937.635253 972.344205,944.285700 986.904668,937.264445 990.017081,943.701492 1004.790294,936.584059 985.679396,897.074128 941.772846,918.222938 945.100324,925.109264 937.300715,928.860793 935.574235,925.288437 923.236279,931.226747 936.008952,957.637603 948.346852,951.699330 943.633391,941.948344 951.432982,938.196827 954.557437,944.656337"/>
    <poly id="561096864" type="building.yes" color="255,230,230" fill="1" layer="-1.00" shape="897.908407,697.700004 904.856247,693.398191 901.747845,688.397434 903.825296,687.111216 899.716929,680.499879 893.032864,684.628474 894.020835,686.216566 887.794902,690.064224 891.391204,695.853336 895.276103,693.454001 897.908407,697.700004"/>
    <poly id="561096866" type="building.yes" color="255,230,230" fill="1" layer="-1.00" shape="679.270145,472.010464 691.433389,463.496496 690.127719,461.635381 699.468654,455.095329 700.774321,456.956448 714.848725,447.097482 709.577265,439.607556 708.012060,440.702971 700.153420,429.524663 688.059115,437.995354 690.440762,441.390476 688.850547,442.496567 687.756383,440.939958 682.997941,444.269595 684.092105,445.826203 674.814023,452.322920 680.284635,460.117079 674.005066,464.509568 679.270145,472.010464"/>
    <poly id="561096868" type="building.yes" color="255,230,230" fill="1" layer="-1.00" shape="667.436234,441.643428 694.783836,411.924287 686.486368,404.333795 666.724371,425.810426 654.833679,414.913779 647.254294,423.156477 667.436234,441.643428"/>
    <poly id="561096869" type="building.yes" color="255,230,230" fill="1" layer="-1.00" shape="696.569970,504.048551 727.528265,482.367668 716.647211,466.891676 701.114764,477.758974 696.085431,470.596405 680.653318,481.409971 696.569970,504.048551"/>
    <poly id="561096870" type="building.yes" color="255,230,230" fill="1" layer="-1.00" shape="741.746310,488.520538 729.834422,496.860897 726.267731,491.796119 697.880649,511.665461 716.891953,538.714424 754.154701,512.630639 745.081243,499.726383 748.123770,497.589617 741.746310,488.520538"/>
    <poly id="561096871" type="building.yes" color="255,230,230" fill="1" layer="-1.00" shape="811.258014,545.808256 876.503297,513.687590 862.743883,485.855910 797.498501,517.965659 811.258014,545.808256"/>
    <poly id="561096874" type="building.yes" color="255,230,230" fill="1" layer="-1.00" shape="913.006416,695.842999 921.711501,690.460575 912.218046,675.165693 903.512944,680.548137 913.006416,695.842999"/>
    <poly id="561096875" type="building.yes" color="255,230,230" fill="1" layer="-1.00" shape="871.477942,727.490546 893.883129,712.999756 888.520950,704.750868 866.115947,719.230557 871.477942,727.490546"/>
    <poly id="561096876" type="building.yes" color="255,230,230" fill="1" layer="-1.00" shape="837.728749,732.797735 857.945379,723.231404 848.129226,702.586887 832.005761,710.225322 834.065681,714.560856 829.972239,716.499926 828.933389,714.309729 817.836190,719.558879 834.776104,755.164571 845.867239,749.904221 837.728749,732.797735"/>
    <poly id="561096877" type="building.yes" color="255,230,230" fill="1" layer="-1.00" shape="889.734854,772.327834 883.132993,758.678733 872.516065,763.791933 880.934263,781.193141 873.184484,784.923451 865.471420,768.971496 861.496263,770.890466 859.680136,767.127222 855.298141,769.239035 857.120472,773.002392 848.219028,777.279140 864.924010,811.811847 933.996424,778.538596 921.037928,751.745798 919.078546,752.689081 914.137794,742.466333 906.888615,745.960962 907.772786,747.792052 890.657905,756.035286 896.877509,768.886863 889.734854,772.327834"/>
    <poly id="561096878" type="building.yes" color="255,230,230" fill="1" layer="-1.00" shape="918.664723,924.851698 949.932455,909.791157 945.421941,900.466995 969.209419,889.008194 956.884471,863.540730 933.103298,874.988586 932.637149,874.033625 956.268244,862.649774 942.377862,833.946977 887.484984,860.380662 918.664723,924.851698"/>
    <poly id="561096879" type="building.yes" color="255,230,230" fill="1" layer="-1.00" shape="886.916002,622.482358 883.296905,624.263197 888.792549,635.353442 894.002046,632.789450 893.003519,630.766980 900.511089,627.065599 893.783528,613.492084 884.685530,617.976638 886.916002,622.482358"/>
    <poly id="561096880" type="building.yes" color="255,230,230" fill="1" layer="-1.00" shape="908.320357,605.457006 909.330875,607.501968 903.031633,610.613474 906.159110,616.928266 909.518967,617.747727 927.471091,608.885538 922.340187,598.536791 908.320357,605.457006"/>
    <poly id="561096881" type="building.yes" color="255,230,230" fill="1" layer="-1.00" shape="846.608154,610.745685 907.327063,580.779188 876.535161,518.653452 847.330636,533.062652 853.257145,545.018076 848.560691,547.346721 856.054071,562.459581 852.529695,571.166864 853.659951,573.447826 851.080090,574.724742 833.791183,539.836171 815.851592,548.687854 846.608154,610.745685"/>
    <poly id="565464675" type="leisure.marina" color="207,245,201" fill="1" layer="-2.00" shape="1671.913200,365.313375 1667.458839,359.329369 1663.532476,352.319906 1653.701881,333.922054 1629.170335,302.390069 1609.161130,278.502254 1582.306438,252.371026 1555.163767,229.340672 1525.657351,207.936186 1494.105917,190.356768 1463.968762,176.767369 1424.810574,161.462031 1403.312454,154.725492 1382.153401,149.431547 1362.648214,145.615886 1345.582794,143.393361 1331.091785,142.532667 1302.469456,139.159336 1202.382082,142.602407 1195.619827,193.131060 1184.344287,217.502314 1181.495039,236.542138 1178.797273,247.123777 1167.844144,263.529918 1193.515034,306.024051 1191.114984,400.475453 1199.286412,418.440472 1221.550762,435.599581 1241.016234,442.475444 1258.638579,448.704693 1281.562293,463.093200 1255.386550,497.962835 1290.100458,557.103102 1330.571316,549.787451 1326.685541,606.359195 1333.579218,623.922117 1347.291823,648.759780 1360.942426,666.281999 1418.156889,690.185118 1429.054751,664.126324 1437.679134,637.557449 1463.872219,643.914487 1465.873735,633.765299 1566.878194,660.928068 1560.521458,654.830597 1570.599522,628.868111 1578.292596,606.690693 1582.842567,586.703249 1585.975580,584.724625 1588.986994,584.268938 1592.124156,586.042198 1593.227061,590.092991 1622.378630,589.225493 1624.130638,578.837901 1626.487544,561.336563 1627.810731,547.678980 1628.842159,530.720575 1629.193225,513.649220 1628.695628,492.865817 1626.676393,467.199926 1622.447008,437.963463 1618.302048,417.790806 1613.097898,397.520370 1607.044536,383.824729 1605.153107,378.144880 1605.891378,374.507112 1608.949356,370.912818 1613.607374,371.000121 1616.900735,373.054646 1620.156807,376.767282 1622.299860,382.262595 1671.913200,365.313375"/>
    <poly id="565476031" type="landuse.residential" color="235,235,227" fill="1" layer="-3.00" shape="1192.341906,1543.615626 1206.552263,1571.568303 1270.618317,1542.493497 1294.699333,1527.802363 1549.327049,2052.251929 1509.030426,2076.490522 1555.172528,2164.281191 1642.179414,2120.033653 1634.958432,2105.581185 1711.419104,2055.303507 1732.162530,2040.262737 1738.319758,2040.344983 1877.870805,1966.083989 1871.983463,1934.177412 1943.404610,1919.957754 1930.983882,1839.432767 1970.304484,1830.053328 2000.270418,1807.583696 2035.551701,1855.886721 2069.466002,1831.922248 2078.605398,1825.181024 2001.056815,1716.140978 1993.748486,1693.837494 2030.813242,1669.954314 1929.971839,1497.475178 1945.919715,1481.331994 1778.677115,1279.117831 1727.862284,1211.911189 1635.175024,1052.596136 1586.925500,1098.160560 1575.936955,1096.284692 1569.971066,1098.499689 1470.733968,883.300840 1442.450782,829.233382 1408.029416,775.919731 1299.365731,639.392520 1240.518007,563.959673 1183.701581,471.309556 1134.614884,376.254842 1048.242838,183.461237 1105.973597,159.420141 1062.772148,58.575606 1052.574727,42.042731 1030.901391,18.316040 1011.027623,-11.433356 974.724745,-46.319788 903.032216,-106.556099 898.523154,-110.347097 879.515200,-126.319514 872.246835,-138.244188 853.002149,-186.606419 804.202927,-247.473588 779.985244,-270.010368 693.729282,-321.940704 676.719065,-322.901464 671.325850,-295.725825 550.094466,-330.254390 548.734352,-272.132638 514.864130,-206.952462 515.289887,-274.643475 485.325643,-275.419826 485.643256,-271.450664 457.909266,-271.016670 458.358704,-264.439988 431.066671,-262.060543 399.324895,-308.747565 369.303814,-295.018052 335.852017,-289.066656 303.916881,-295.366565 271.489014,-308.945053 241.353875,-313.931048 210.195894,-317.967104 182.248591,-322.812204 99.704560,-346.529383 40.192990,-363.732242 -75.131270,-401.273837 -104.457801,-409.459917 -204.241893,-426.184108 -204.807059,-417.009897 -211.295736,-417.818951 -213.597360,-376.847859 -268.893402,-381.689707 -297.228448,-379.291295 -367.612984,-353.425271 -358.272277,-272.697676 -340.021942,-232.998501 -246.183662,-194.744039 -253.201274,-175.111764 -332.497209,-216.918762 -364.052997,-247.721149 -383.487949,-286.451040 -397.103163,-431.470574 -507.521559,-382.052795 -509.127738,-308.973122 -567.422958,-312.307249 -579.288470,-287.073996 -614.905165,-257.909426 -685.748676,-150.009234 -704.635347,13.209727 -687.853607,29.379368 -691.474010,37.039615 -688.229971,41.874624 -682.388393,43.428221 -679.521313,41.020071 -673.978288,47.043620 -674.558040,50.940670 -620.455721,82.863986 -597.713205,94.689487 -592.770535,89.725282 -582.760781,88.972569 -573.296031,86.462098 -566.693172,89.476995 -560.685938,93.850376 -545.636102,94.703706 -536.268591,96.845048 -522.169694,101.867046 -517.997306,116.682972 -475.723498,143.861357 -444.762232,152.731666 -415.391971,139.318679 -373.267883,220.133195 -80.846211,71.287204 292.183153,262.428608 272.455174,303.011611 307.370755,323.082028 318.320031,299.626610 329.961631,305.251857 355.609230,256.606793 377.277077,215.525569 466.946760,276.051723 487.766645,240.955977 652.433352,354.896535 643.835086,364.211396 687.050272,398.343622 718.258979,428.468581 739.188851,453.783065 780.905837,520.429936 859.720274,462.576560 942.566480,629.884421 902.002415,654.324368 938.631458,708.409546 907.329023,728.935811 946.885231,795.054476 980.805233,873.615506 1046.427664,1029.350139 1026.694473,1038.991350 1041.954957,1087.336158 986.688973,1115.286774 1192.341906,1543.615626"/>
    <poly id="565497692" type="natural.scrub" color="140,196,107" fill="1" layer="-4.00" shape="1313.749719,613.999718 1294.913843,607.012791 1293.518291,592.369209 1266.588084,554.671435 1262.810878,543.635018 1239.347056,499.021785 1230.037217,489.218137 1218.264746,469.404619 1222.705403,463.509069 1228.206529,453.981708 1233.167972,437.797935 1249.502162,387.369972 1256.402933,387.632326 1240.533447,437.757213 1241.016234,442.475444 1258.638579,448.704693 1281.562293,463.093200 1255.386550,497.962835 1290.100458,557.103102 1330.571316,549.787451 1326.685541,606.359195 1333.579218,623.922117 1347.291823,648.759780 1360.942426,666.281999 1418.156889,690.185118 1429.054751,664.126324 1437.843958,669.545450 1412.886116,731.846193 1395.553313,724.141001 1386.506297,731.854000 1374.133595,712.696765 1359.706633,678.961579 1335.500408,651.935047 1313.749719,613.999718"/>
    <poly id="617764623" type="natural.wood" color="140,196,107" fill="1" layer="-4.00" shape="399.474232,1065.639704 488.288295,1066.400932 489.624225,990.098641 531.551844,968.441089 559.094104,965.866726 540.568679,898.181279 517.597012,903.167051 509.459476,939.309764 515.524436,971.306451 477.444305,988.203595 473.090866,1034.447024 424.849862,1033.889772 382.256554,1024.798208 399.474232,1065.639704"/>
    <poly id="623355696" type="building.yes" color="255,230,230" fill="1" layer="-1.00" shape="1155.350144,915.552161 1152.060096,910.336298 1147.722291,913.072079 1151.012135,918.299068 1138.902788,925.933228 1143.060774,932.512340 1139.877987,934.523748 1142.228166,938.241409 1148.782070,934.099647 1146.901929,931.125515 1160.919803,922.280066 1156.297999,914.957518 1155.350144,915.552161"/>
    <poly id="623355698" type="building.yes" color="255,230,230" fill="1" layer="-1.00" shape="838.470737,426.445499 833.539770,419.340254 826.462162,424.263225 830.662070,430.308401 824.382711,434.678413 829.017609,441.355103 842.437411,432.018777 843.276809,433.258976 856.288145,424.204565 857.067790,425.321196 870.166838,416.223923 870.910094,417.295349 884.122286,408.122288 884.871535,409.204961 897.920660,400.129109 898.669908,401.211784 912.139816,391.865468 903.317130,379.165924 897.741799,383.036798 897.959297,383.352559 895.809550,384.848966 897.882187,387.837682 900.669747,387.410749 901.703066,388.899486 893.739216,394.429327 888.959225,387.549480 883.987201,391.008527 886.669954,394.888067 881.578649,398.422831 880.539536,396.911726 877.377993,399.101856 873.542617,393.809306 870.261370,396.097414 871.530390,397.924507 870.040588,398.965600 874.149700,404.886672 869.196935,408.312694 867.632061,406.045925 864.439107,408.257747 861.200396,403.577463 856.190786,407.058109 860.209353,412.843891 855.281624,416.259261 853.880077,414.218188 850.837852,416.332622 847.441798,411.437902 842.312711,415.005409 846.421844,420.926455 838.470737,426.445499"/>
    <poly id="623355699" type="building.yes" color="255,230,230" fill="1" layer="-1.00" shape="1127.272804,941.803580 1122.652418,934.403165 1106.767917,944.549915 1111.279801,951.781297 1127.272804,941.803580"/>
    <poly id="623355703" type="building.yes" color="255,230,230" fill="1" layer="-1.00" shape="1118.611569,921.202172 1113.276975,912.842165 1098.799201,922.068855 1104.127609,930.428728 1118.611569,921.202172"/>
    <poly id="623355718" type="building.yes" color="255,230,230" fill="1" layer="-1.00" shape="1192.632659,804.884640 1192.400495,805.025039 1197.357213,813.021843 1209.677633,805.402907 1204.691372,797.327607 1195.979718,802.720471 1191.131712,794.881556 1191.797197,794.459782 1187.948792,788.242652 1180.668375,792.738201 1184.601120,799.090492 1187.827025,797.102184 1192.632659,804.884640"/>
    <poly id="623355739" type="building.yes" color="255,230,230" fill="1" layer="-1.00" shape="1121.842153,447.067107 1133.182454,439.485337 1134.069935,440.804422 1139.711774,437.035288 1132.118050,425.682966 1126.507629,429.430430 1129.362958,433.691863 1117.991016,441.306453 1121.842153,447.067107"/>
    <poly id="623355771" type="building.yes" color="255,230,230" fill="1" layer="-1.00" shape="1334.371797,801.362385 1332.991294,799.210208 1327.471732,802.758707 1323.347774,796.358175 1315.812707,801.193863 1325.000244,815.504278 1338.400734,806.870519 1334.717054,801.146176 1334.371797,801.362385"/>
    <poly id="623355785" type="building.yes" color="255,230,230" fill="1" layer="-1.00" shape="1048.121855,831.015464 1060.271613,823.214803 1058.468874,820.409149 1059.121730,819.998252 1054.468808,813.332086 1052.008582,812.852106 1050.189158,813.608675 1049.502368,814.842777 1049.399372,816.043214 1051.192809,819.015686 1043.438554,823.981359 1041.798696,821.423667 1036.210572,825.004657 1037.241454,826.615848 1032.117862,829.904901 1033.890640,832.654322 1028.440633,836.148828 1027.071980,834.019240 1028.478773,833.099121 1025.542397,828.535652 1018.918170,832.787624 1028.390014,847.536852 1050.020923,833.978768 1048.121855,831.015464"/>
    <poly id="623355791" type="building.yes" color="255,230,230" fill="1" layer="-1.00" shape="1288.271797,933.528814 1283.557820,926.171003 1265.901400,937.497582 1270.609400,944.844129 1288.271797,933.528814"/>
    <poly id="623355793" type="building.yes" color="255,230,230" fill="1" layer="-1.00" shape="1221.778798,765.639174 1218.718356,760.750399 1214.261487,763.539561 1210.658643,757.794573 1203.627885,762.205678 1211.339582,774.506653 1220.379205,768.830481 1221.692385,770.936832 1220.772567,772.021834 1222.416881,774.668743 1231.939874,768.689889 1227.710752,761.931240 1221.778798,765.639174"/>
    <poly id="623355837" type="building.yes" color="255,230,230" fill="1" layer="-1.00" shape="1067.282726,764.196179 1072.009664,771.553976 1077.868088,767.788804 1073.141363,760.419871 1067.282726,764.196179"/>
    <poly id="623355839" type="building.yes" color="255,230,230" fill="1" layer="-1.00" shape="1059.862156,926.186608 1069.481961,919.975418 1070.392503,921.383985 1072.219760,920.204521 1071.327409,918.818557 1077.587929,914.771420 1072.933103,907.548548 1060.958649,915.274502 1060.651068,914.801193 1054.899318,918.512705 1059.862156,926.186608"/>