<?xml version="1.0" encoding="UTF-8"?>

<!-- generated on Fri 01 May 2020 04:40:36 PM PDT by Eclipse SUMO netedit Version 1.2.0
<configuration xmlns:xsi="http://www.w3.org/2001/XMLSchema-instance" xsi:noNamespaceSchemaLocation="http://sumo.dlr.de/xsd/netconvertConfiguration.xsd">

    <input>
        <sumo-net-file value="/mnt/c/Users/Garey/Desktop/Ubuntu%20Directory/siren/siren/SUMO/intersections/aarhus_intersection/osm.net.xml"/>
    </input>

    <output>
        <output-file value="/mnt/c/Users/Garey/Desktop/Ubuntu%20Directory/siren/siren/SUMO/intersections/aarhus_intersection/osm.net.xml"/>
        <output.street-names value="true"/>
    </output>

    <processing>
        <geometry.max-grade.fix value="false"/>
        <offset.disable-normalization value="true"/>
        <lefthand value="false"/>
    </processing>

    <junctions>
        <no-internal-links value="false"/>
        <no-turnarounds value="true"/>
        <junctions.corner-detail value="5"/>
        <junctions.limit-turn-speed value="5.5"/>
        <rectangular-lane-cut value="false"/>
    </junctions>

    <pedestrian>
        <walkingareas value="true"/>
    </pedestrian>

    <netedit>
        <route-files value="/mnt/c/Users/Garey/Desktop/Ubuntu%20Directory/siren/siren/SUMO/intersections/aarhus_intersection/osm.rou"/>
    </netedit>

</configuration>
-->

<net version="1.1" junctionCornerDetail="5" walkingareas="true" limitTurnSpeed="5.50" xmlns:xsi="http://www.w3.org/2001/XMLSchema-instance" xsi:noNamespaceSchemaLocation="http://sumo.dlr.de/xsd/net_file.xsd">

    <location netOffset="-578523.66,-6229762.86" convBoundary="314.31,209.41,1137.26,1475.01" origBoundary="10.266177,56.206223,10.300594,56.245021" projParameter="+proj=utm +zone=32 +ellps=WGS84 +datum=WGS84 +units=m +no_defs"/>

    <type id="cycleway.lane" allow="bicycle" bikeLaneWidth="1.00"/>
    <type id="cycleway.opposite_lane" allow="bicycle" bikeLaneWidth="1.00"/>
    <type id="cycleway.opposite_track" allow="bicycle" bikeLaneWidth="1.50"/>
    <type id="cycleway.track" allow="bicycle" bikeLaneWidth="1.50"/>
    <type id="cycleway.track|highway.secondary" priority="11" numLanes="1" speed="13.89" disallow="tram rail_urban rail rail_electric pedestrian ship" oneway="0" sidewalkWidth="3.00" bikeLaneWidth="1.50"/>
    <type id="highway.bridleway" priority="1" numLanes="1" speed="2.78" allow="pedestrian" oneway="1" width="2.00"/>
    <type id="highway.bus_guideway" priority="1" numLanes="1" speed="13.89" allow="bus" oneway="1"/>
    <type id="highway.cycleway" priority="1" numLanes="1" speed="8.33" allow="bicycle" oneway="0" width="1.00"/>
    <type id="highway.footway" priority="1" numLanes="1" speed="2.78" allow="pedestrian" oneway="1" width="2.00"/>
    <type id="highway.ford" priority="1" numLanes="1" speed="2.78" allow="army" oneway="0"/>
    <type id="highway.living_street" priority="2" numLanes="1" speed="2.78" disallow="tram rail_urban rail rail_electric ship" oneway="0"/>
    <type id="highway.motorway" priority="14" numLanes="2" speed="27.78" allow="private emergency authority army vip passenger hov taxi bus coach delivery truck trailer motorcycle evehicle custom1 custom2" oneway="1"/>
    <type id="highway.motorway_link" priority="9" numLanes="1" speed="16.67" allow="private emergency authority army vip passenger hov taxi bus coach delivery truck trailer motorcycle evehicle custom1 custom2" oneway="1"/>
    <type id="highway.path" priority="1" numLanes="1" speed="2.78" allow="bicycle pedestrian" oneway="1" width="2.00"/>
    <type id="highway.pedestrian" priority="1" numLanes="1" speed="2.78" allow="pedestrian" oneway="1" width="2.00"/>
    <type id="highway.primary" priority="12" numLanes="2" speed="13.89" disallow="tram rail_urban rail rail_electric pedestrian ship" oneway="0" sidewalkWidth="3.00"/>
    <type id="highway.primary_link" priority="7" numLanes="1" speed="13.89" disallow="tram rail_urban rail rail_electric pedestrian ship" oneway="0" sidewalkWidth="3.00"/>
    <type id="highway.raceway" priority="15" numLanes="2" speed="83.33" allow="vip" oneway="0"/>
    <type id="highway.residential" priority="3" numLanes="1" speed="13.89" disallow="tram rail_urban rail rail_electric pedestrian ship" oneway="0" sidewalkWidth="2.00"/>
    <type id="highway.secondary" priority="11" numLanes="1" speed="13.89" disallow="tram rail_urban rail rail_electric pedestrian ship" oneway="0" sidewalkWidth="3.00"/>
    <type id="highway.secondary_link" priority="6" numLanes="1" speed="13.89" disallow="tram rail_urban rail rail_electric pedestrian ship" oneway="0" sidewalkWidth="3.00"/>
    <type id="highway.service" priority="1" numLanes="1" speed="5.56" allow="delivery bicycle pedestrian" oneway="0"/>
    <type id="highway.stairs" priority="1" numLanes="1" speed="1.39" allow="pedestrian" oneway="1" width="2.00"/>
    <type id="highway.step" priority="1" numLanes="1" speed="1.39" allow="pedestrian" oneway="1" width="2.00"/>
    <type id="highway.steps" priority="1" numLanes="1" speed="1.39" allow="pedestrian" oneway="1" width="2.00"/>
    <type id="highway.tertiary" priority="10" numLanes="1" speed="13.89" disallow="tram rail_urban rail rail_electric pedestrian ship" oneway="0" sidewalkWidth="3.00"/>
    <type id="highway.tertiary_link" priority="5" numLanes="1" speed="13.89" disallow="tram rail_urban rail rail_electric pedestrian ship" oneway="0" sidewalkWidth="2.00"/>
    <type id="highway.track" priority="1" numLanes="1" speed="5.56" disallow="tram rail_urban rail rail_electric ship" oneway="0"/>
    <type id="highway.trunk" priority="13" numLanes="2" speed="13.89" disallow="tram rail_urban rail rail_electric bicycle pedestrian ship" oneway="0"/>
    <type id="highway.trunk_link" priority="8" numLanes="1" speed="13.89" disallow="tram rail_urban rail rail_electric bicycle pedestrian ship" oneway="0"/>
    <type id="highway.unclassified" priority="4" numLanes="1" speed="13.89" disallow="tram rail_urban rail rail_electric pedestrian ship" oneway="0" sidewalkWidth="2.00"/>
    <type id="highway.unsurfaced" priority="1" numLanes="1" speed="8.33" disallow="tram rail_urban rail rail_electric ship" oneway="0"/>
    <type id="railway.highspeed" priority="21" numLanes="1" speed="69.44" allow="rail_electric" oneway="1"/>
    <type id="railway.light_rail" priority="19" numLanes="1" speed="27.78" allow="rail_urban" oneway="1"/>
    <type id="railway.preserved" priority="16" numLanes="1" speed="27.78" allow="rail" oneway="1"/>
    <type id="railway.rail" priority="20" numLanes="1" speed="44.44" allow="rail" oneway="1"/>
    <type id="railway.subway" priority="18" numLanes="1" speed="27.78" allow="rail_urban" oneway="1"/>
    <type id="railway.tram" priority="17" numLanes="1" speed="13.89" allow="tram" oneway="1"/>

    <edge id=":413544452_0" function="internal">
        <lane id=":413544452_0_0" index="0" allow="bicycle" speed="2.04" length="1.46" width="1.00" shape="686.65,768.73 686.21,768.65 685.99,768.47 686.01,768.19 686.25,767.81"/>
    </edge>
    <edge id=":4927571695_0" function="internal">
        <lane id=":4927571695_0_0" index="0" allow="private emergency authority army vip passenger hov taxi bus coach delivery truck trailer motorcycle moped bicycle evehicle" speed="18.05" length="9.27" width="3.00" shape="843.29,693.26 841.36,695.18 841.01,697.47 840.66,699.78 838.77,701.76"/>
        <lane id=":4927571695_0_1" index="1" allow="private emergency authority army vip passenger hov taxi bus coach delivery truck trailer motorcycle moped bicycle evehicle" speed="18.05" length="9.27" shape="843.29,693.26 841.30,694.67 840.28,696.11 839.26,697.56 837.30,699.03"/>
    </edge>
    <edge id=":4927571695_2" function="internal">
        <lane id=":4927571695_2_0" index="0" allow="private emergency authority army vip passenger hov taxi bus coach delivery truck trailer motorcycle moped bicycle evehicle" speed="13.89" length="8.10" width="3.00" shape="835.04,694.83 841.94,690.58"/>
    </edge>
    <edge id=":4927571700_0" function="internal">
        <lane id=":4927571700_0_0" index="0" allow="private emergency authority army vip passenger hov taxi bus coach delivery truck trailer motorcycle evehicle" speed="22.22" length="8.47" width="3.00" shape="795.23,781.89 793.94,779.74 792.72,778.47 791.49,777.21 790.17,775.07"/>
        <lane id=":4927571700_0_1" index="1" allow="private emergency authority army vip passenger hov taxi bus coach delivery truck trailer motorcycle evehicle" speed="22.22" length="8.47" width="1.50" shape="797.26,780.91 795.97,778.76 794.75,777.49 793.52,776.23 792.20,774.09"/>
        <lane id=":4927571700_0_2" index="2" allow="private emergency authority army vip passenger hov taxi bus coach delivery truck trailer motorcycle evehicle" speed="22.22" length="8.47" width="1.50" shape="797.26,780.91 793.55,773.44"/>
    </edge>
    <edge id=":4927571700_3" function="internal">
        <lane id=":4927571700_3_0" index="0" allow="bicycle" speed="13.89" length="8.33" width="2.00" shape="803.56,768.61 807.42,775.99"/>
        <lane id=":4927571700_3_1" index="1" allow="private emergency authority army vip passenger hov taxi bus coach delivery truck trailer motorcycle moped bicycle evehicle" speed="13.89" length="8.33" shape="801.22,769.75 805.08,777.12"/>
        <lane id=":4927571700_3_2" index="2" allow="private emergency authority army vip passenger hov taxi bus coach delivery truck trailer motorcycle moped bicycle evehicle" speed="13.89" length="8.33" shape="798.33,771.14 802.20,778.51"/>
    </edge>
    <edge id=":529392674_0" function="internal">
        <lane id=":529392674_0_0" index="0" allow="private emergency authority army vip passenger hov taxi bus coach delivery truck trailer motorcycle moped bicycle evehicle" speed="3.53" length="4.38" width="3.00" shape="957.40,632.27 958.75,632.43 959.42,632.93 959.42,633.77 958.76,634.95"/>
    </edge>
    <edge id=":gneJ29_0" function="internal">
        <lane id=":gneJ29_0_0" index="0" allow="private emergency authority army vip passenger hov taxi bus coach delivery truck trailer motorcycle evehicle" speed="22.22" length="15.62" width="3.00" shape="773.65,740.82 771.96,736.52 771.26,733.39 770.52,730.28 768.69,726.05"/>
        <lane id=":gneJ29_0_1" index="1" allow="private emergency authority army vip passenger hov taxi bus coach delivery truck trailer motorcycle evehicle" speed="22.22" length="15.62" width="1.50" shape="775.63,739.75 773.94,735.46 773.25,732.33 772.51,729.22 770.68,725.00"/>
    </edge>
    <edge id=":gneJ29_2" function="internal">
        <lane id=":gneJ29_2_0" index="0" allow="private emergency authority army vip passenger hov taxi bus coach delivery truck trailer motorcycle moped bicycle evehicle" speed="9.70" length="20.83" width="2.00" shape="776.95,739.03 775.88,734.63 777.01,730.42 780.33,726.40 785.86,722.57"/>
    </edge>
    <edge id=":gneJ29_3" function="internal">
        <lane id=":gneJ29_3_0" index="0" allow="bicycle" speed="6.10" length="7.89" width="2.00" shape="789.41,728.88 786.98,730.40 785.45,731.86 784.82,733.27 785.09,734.62"/>
    </edge>
    <edge id=":gneJ29_4" function="internal">
        <lane id=":gneJ29_4_0" index="0" allow="private emergency authority army vip passenger hov taxi bus coach delivery truck trailer motorcycle moped bicycle evehicle" speed="6.96" length="10.60" shape="789.17,728.44 785.76,730.53 783.56,732.46 782.57,734.23 782.80,735.86"/>
    </edge>
    <edge id=":gneJ29_5" function="internal">
        <lane id=":gneJ29_5_0" index="0" allow="private emergency authority army vip passenger hov taxi bus coach delivery truck trailer motorcycle moped bicycle evehicle" speed="7.81" length="13.59" shape="789.17,728.44 784.52,731.19 781.44,733.60 779.93,735.66 779.99,737.38"/>
    </edge>
    <edge id=":gneJ29_6" function="internal">
        <lane id=":gneJ29_6_0" index="0" allow="bicycle" speed="15.27" length="23.72" width="1.00" shape="789.65,729.32 782.97,731.79 776.52,732.76 770.86,733.21 766.56,734.13"/>
    </edge>
    <edge id=":gneJ29_7" function="internal">
        <lane id=":gneJ29_7_0" index="0" allow="private emergency authority army vip passenger hov taxi bus coach delivery truck trailer motorcycle evehicle" speed="10.08" length="23.33" width="3.00" shape="789.17,728.44 782.28,731.31 776.57,731.87 772.04,730.12 768.69,726.05"/>
    </edge>
    <edge id=":gneJ29_8" function="internal">
        <lane id=":gneJ29_8_0" index="0" allow="private emergency authority army vip passenger hov taxi bus coach delivery truck trailer motorcycle evehicle" speed="9.16" length="19.04" width="1.50" shape="787.65,725.74 781.75,728.30 776.95,729.03 773.26,727.93 770.68,725.00"/>
    </edge>
    <edge id=":gneJ29_9" function="internal">
        <lane id=":gneJ29_9_0" index="0" allow="bicycle" speed="4.71" length="4.83" width="2.00" shape="780.88,719.61 781.63,720.70 782.55,721.27 783.63,721.31 784.88,720.82"/>
    </edge>
    <edge id=":gneJ29_10" function="internal">
        <lane id=":gneJ29_10_0" index="0" allow="bicycle" speed="13.89" length="15.69" width="2.00" shape="780.88,719.61 782.46,723.94 782.88,727.17 783.34,730.37 785.09,734.62"/>
    </edge>
    <edge id=":gneJ29_11" function="internal">
        <lane id=":gneJ29_11_0" index="0" allow="private emergency authority army vip passenger hov taxi bus coach delivery truck trailer motorcycle moped bicycle evehicle" speed="6.26" length="2.24" width="2.00" shape="778.58,720.82 779.88,722.65"/>
    </edge>
    <edge id=":gneJ29_12" function="internal">
        <lane id=":gneJ29_12_0" index="0" allow="private emergency authority army vip passenger hov taxi bus coach delivery truck trailer motorcycle moped bicycle evehicle" speed="13.89" length="15.28" shape="775.75,722.32 782.80,735.86"/>
        <lane id=":gneJ29_12_1" index="1" allow="private emergency authority army vip passenger hov taxi bus coach delivery truck trailer motorcycle moped bicycle evehicle" speed="13.89" length="15.28" shape="772.92,723.82 779.99,737.38"/>
    </edge>
    <edge id=":gneJ29_15" function="internal">
        <lane id=":gneJ29_15_0" index="0" allow="private emergency authority army vip passenger hov taxi bus coach delivery truck trailer motorcycle moped bicycle evehicle" speed="6.26" length="6.40" width="2.00" shape="779.88,722.65 781.52,723.55 783.52,723.52 785.86,722.57"/>
    </edge>
    <edge id=":gneJ29_14" function="internal">
        <lane id=":gneJ29_14_0" index="0" allow="bicycle" speed="11.11" length="22.47" width="2.00" shape="766.16,733.22 769.80,731.13 773.97,728.12 778.92,724.55 784.88,720.82"/>
    </edge>
    <edge id=":gneJ38_0" function="internal">
        <lane id=":gneJ38_0_0" index="0" allow="private emergency authority army vip passenger hov taxi bus coach delivery truck trailer motorcycle evehicle" speed="22.22" length="7.17" width="3.00" shape="711.33,612.29 708.45,605.83"/>
        <lane id=":gneJ38_0_1" index="1" allow="private emergency authority army vip passenger hov taxi bus coach delivery truck trailer motorcycle evehicle" speed="22.22" length="7.17" width="1.50" shape="713.39,611.38 710.41,604.73"/>
    </edge>
    <edge id=":gneJ38_2" function="internal">
        <lane id=":gneJ38_2_0" index="0" allow="bicycle" speed="13.89" length="8.74" width="2.00" shape="720.07,599.33 721.76,601.40 723.52,602.36 725.23,603.35 726.75,605.52"/>
        <lane id=":gneJ38_2_1" index="1" allow="private emergency authority army vip passenger hov taxi bus coach delivery truck trailer motorcycle bicycle evehicle" speed="13.89" length="8.74" shape="717.80,600.60 719.46,602.61 721.20,603.52 722.88,604.47 724.37,606.56"/>
        <lane id=":gneJ38_2_2" index="2" allow="private emergency authority army vip passenger hov taxi bus coach delivery truck trailer motorcycle bicycle evehicle" speed="13.89" length="8.74" shape="715.01,602.16 716.62,604.09 718.33,604.95 719.99,605.83 721.44,607.85"/>
        <lane id=":gneJ38_2_3" index="3" allow="private emergency authority army vip passenger hov taxi bus coach delivery truck trailer motorcycle bicycle evehicle" speed="13.89" length="8.74" shape="715.01,602.16 718.51,609.13"/>
    </edge>

    <edge id="-24095610" from="gneJ29" to="413544452" priority="1" type="highway.cycleway">
        <lane id="-24095610_0" index="0" allow="bicycle" speed="8.33" length="87.08" width="1.00" shape="766.56,734.13 686.65,768.73">
            <param key="origId" value="24095610"/>
        </lane>
    </edge>
    <edge id="-502199947#0" from="529392674" to="4927571695" name="Egå Havvej" priority="10">
        <lane id="-502199947#0_0" index="0" allow="private emergency authority army vip passenger hov taxi bus coach delivery truck trailer motorcycle moped bicycle evehicle" speed="13.89" length="129.35" width="3.00" shape="958.76,634.95 843.29,693.26">
            <param key="origId" value="502199947"/>
        </lane>
    </edge>
    <edge id="24095610" from="413544452" to="gneJ29" priority="1" type="highway.cycleway">
        <lane id="24095610_0" index="0" allow="bicycle" speed="8.33" length="87.08" width="1.00" shape="686.25,767.81 766.16,733.22">
            <param key="origId" value="24095610"/>
        </lane>
    </edge>
    <edge id="34631095#0" from="211461502" to="4927571700" name="Grenåvej" priority="11" type="cycleway.track|highway.secondary" spreadType="center" shape="1135.05,1475.01 957.94,1120.34 885.17,973.67 795.38,780.43">
        <lane id="34631095#0_0" index="0" allow="private emergency authority army vip passenger hov taxi bus coach delivery truck trailer motorcycle evehicle" speed="22.22" length="772.62" width="3.00" shape="1134.66,1475.91 957.27,1120.67 884.49,973.99 795.23,781.89">
            <param key="origId" value="34631095"/>
        </lane>
        <lane id="34631095#0_1" index="1" allow="private emergency authority army vip passenger hov taxi bus coach delivery truck trailer motorcycle evehicle" speed="22.22" length="772.62" width="1.50" shape="1136.67,1474.90 959.28,1119.67 886.52,973.02 797.26,780.91">
            <param key="origId" value="34631095"/>
        </lane>
        <param key="ref" value="505"/>
    </edge>
    <edge id="34631095#3" from="4927571700" to="gneJ29" name="Grenåvej" priority="11" spreadType="center" shape="792.76,776.98 772.16,734.29">
        <lane id="34631095#3_0" index="0" allow="private emergency authority army vip passenger hov taxi bus coach delivery truck trailer motorcycle evehicle" speed="22.22" length="38.12" width="3.00" shape="790.17,775.07 773.65,740.82">
            <param key="origId" value="34631095"/>
        </lane>
        <lane id="34631095#3_1" index="1" allow="private emergency authority army vip passenger hov taxi bus coach delivery truck trailer motorcycle evehicle" speed="22.22" length="38.12" width="1.50" shape="792.20,774.09 775.63,739.75">
            <param key="origId" value="34631095"/>
        </lane>
        <lane id="34631095#3_2" index="2" allow="private emergency authority army vip passenger hov taxi bus coach delivery truck trailer motorcycle evehicle" speed="22.22" length="38.12" width="1.50" shape="793.55,773.44 776.95,739.03">
            <param key="origId" value="34631095"/>
        </lane>
        <param key="ref" value="505"/>
    </edge>
    <edge id="34631095#4" from="gneJ29" to="gneJ38" name="Grenåvej" priority="11" type="cycleway.track|highway.secondary" spreadType="center" shape="772.25,731.18 728.90,649.23 711.26,610.32">
        <lane id="34631095#4_0" index="0" allow="private emergency authority army vip passenger hov taxi bus coach delivery truck trailer motorcycle evehicle" speed="22.22" length="127.38" width="3.00" shape="768.69,726.05 728.23,649.56 711.33,612.29">
            <param key="origId" value="34631095"/>
        </lane>
        <lane id="34631095#4_1" index="1" allow="private emergency authority army vip passenger hov taxi bus coach delivery truck trailer motorcycle evehicle" speed="22.22" length="127.38" width="1.50" shape="770.68,725.00 730.25,648.57 713.39,611.38">
            <param key="origId" value="34631095"/>
        </lane>
        <param key="ref" value="505"/>
    </edge>
    <edge id="34631095#4.118" from="gneJ38" to="119130692" name="Grenåvej" priority="11" type="cycleway.track|highway.secondary" spreadType="center" shape="710.18,607.39 670.16,535.94 628.62,469.93 587.22,418.94 534.21,361.35 460.18,298.85 394.15,255.43 376.57,245.73 314.31,211.38">
        <lane id="34631095#4.118_0" index="0" allow="private emergency authority army vip passenger hov taxi bus coach delivery truck trailer motorcycle evehicle" speed="22.22" length="568.94" width="3.00" shape="708.45,605.83 669.52,536.32 628.01,470.37 586.65,419.43 533.69,361.89 459.73,299.45 393.76,256.07 376.21,246.39 313.95,212.04">
            <param key="origId" value="34631095"/>
        </lane>
        <lane id="34631095#4.118_1" index="1" allow="private emergency authority army vip passenger hov taxi bus coach delivery truck trailer motorcycle evehicle" speed="22.22" length="568.94" width="1.50" shape="710.41,604.73 671.45,535.17 629.84,469.05 588.36,417.96 535.25,360.26 461.08,297.65 394.93,254.14 377.29,244.42 315.03,210.07">
            <param key="origId" value="34631095"/>
        </lane>
        <param key="ref" value="505"/>
    </edge>
    <edge id="35279828" from="4927571695" to="gneJ29" name="Egå Havvej" priority="10" type="highway.tertiary" spreadType="center" shape="841.57,698.44 780.20,731.45">
        <lane id="35279828_0" index="0" allow="private emergency authority army vip passenger hov taxi bus coach delivery truck trailer motorcycle moped bicycle evehicle" speed="22.22" length="56.35" width="3.00" shape="838.77,701.76 789.17,728.44">
            <param key="origId" value="35279828"/>
        </lane>
        <lane id="35279828_1" index="1" allow="private emergency authority army vip passenger hov taxi bus coach delivery truck trailer motorcycle moped bicycle evehicle" speed="22.22" length="56.35" shape="837.30,699.03 787.65,725.74">
            <param key="origId" value="35279828"/>
        </lane>
    </edge>
    <edge id="502199947#0" from="4927571695" to="529392674" name="Egå Havvej" priority="10" type="highway.tertiary">
        <lane id="502199947#0_0" index="0" allow="private emergency authority army vip passenger hov taxi bus coach delivery truck trailer motorcycle moped bicycle evehicle" speed="13.89" length="129.35" width="3.00" shape="841.94,690.58 957.40,632.27">
            <param key="origId" value="502199947"/>
        </lane>
    </edge>
    <edge id="gneE13" from="gneJ38" to="gneJ29" priority="-1" shape="716.06,607.54 733.04,646.21 774.29,730.24">
        <lane id="gneE13_0" index="0" allow="bicycle" speed="13.89" length="126.62" width="2.00" shape="726.75,605.52 742.65,641.74 780.88,719.61"/>
        <lane id="gneE13_1" index="1" allow="private emergency authority army vip passenger hov taxi bus coach delivery truck trailer motorcycle bicycle evehicle" speed="13.89" length="126.62" shape="724.37,606.56 740.30,642.84 778.58,720.82"/>
        <lane id="gneE13_2" index="2" allow="private emergency authority army vip passenger hov taxi bus coach delivery truck trailer motorcycle bicycle evehicle" speed="13.89" length="126.62" shape="721.44,607.85 737.39,644.19 775.75,722.32"/>
        <lane id="gneE13_3" index="3" allow="private emergency authority army vip passenger hov taxi bus coach delivery truck trailer motorcycle bicycle evehicle" speed="13.89" length="126.62" shape="718.51,609.13 734.49,645.54 772.92,723.82"/>
    </edge>
    <edge id="gneE14" from="119130692" to="gneJ38" priority="-1" shape="315.40,209.41 378.25,237.00 398.50,247.95 464.87,290.77 539.74,355.69 591.87,413.45 633.69,464.88 675.63,531.62 716.06,607.54">
        <lane id="gneE14_0" index="0" allow="bicycle" speed="13.89" length="576.44" width="2.00" shape="318.37,202.63 381.50,230.35 402.27,241.58 469.32,284.84 544.93,350.40 597.49,408.63 639.72,460.56 682.04,527.91 720.07,599.33"/>
        <lane id="gneE14_1" index="1" allow="private emergency authority army vip passenger hov taxi bus coach delivery truck trailer motorcycle moped evehicle" speed="13.89" length="576.44" shape="317.33,205.01 380.36,232.68 400.95,243.82 467.76,286.92 543.11,352.26 595.52,410.33 637.60,462.08 679.79,529.21 717.80,600.60"/>
        <lane id="gneE14_2" index="2" allow="private emergency authority army vip passenger hov taxi bus coach delivery truck trailer motorcycle moped evehicle" speed="13.89" length="576.44" shape="316.04,207.94 378.95,235.56 399.32,246.57 465.83,289.49 540.86,354.55 593.09,412.41 634.99,463.95 677.02,530.82 715.01,602.16"/>
    </edge>
    <edge id="gneE4" from="gneJ29" to="4927571695" priority="-1">
        <lane id="gneE4_0" index="0" allow="bicycle" speed="13.89" length="56.48" width="2.00" shape="784.88,720.82 834.09,693.07"/>
        <lane id="gneE4_1" index="1" allow="private emergency authority army vip passenger hov taxi bus coach delivery truck trailer motorcycle moped bicycle evehicle" speed="13.89" length="56.48" width="2.00" shape="785.86,722.57 835.04,694.83"/>
    </edge>
    <edge id="gneE5" from="4927571700" to="211461502" priority="-1">
        <lane id="gneE5_0" index="0" allow="bicycle" speed="13.89" length="772.54" width="2.00" shape="807.42,775.99 1143.92,1471.39"/>
        <lane id="gneE5_1" index="1" allow="private emergency authority army vip passenger hov taxi bus coach delivery truck trailer motorcycle moped bicycle evehicle" speed="13.89" length="772.54" shape="805.08,777.12 1141.58,1472.52"/>
        <lane id="gneE5_2" index="2" allow="private emergency authority army vip passenger hov taxi bus coach delivery truck trailer motorcycle moped bicycle evehicle" speed="13.89" length="772.54" shape="802.20,778.51 1138.70,1473.91"/>
    </edge>
    <edge id="gneE6" from="gneJ29" to="4927571700" priority="-1">
        <lane id="gneE6_0" index="0" allow="bicycle" speed="13.89" length="38.56" width="2.00" shape="785.09,734.62 803.56,768.61"/>
        <lane id="gneE6_1" index="1" allow="private emergency authority army vip passenger hov taxi bus coach delivery truck trailer motorcycle moped bicycle evehicle" speed="13.89" length="38.56" shape="782.80,735.86 801.22,769.75"/>
        <lane id="gneE6_2" index="2" allow="private emergency authority army vip passenger hov taxi bus coach delivery truck trailer motorcycle moped bicycle evehicle" speed="13.89" length="38.56" shape="779.99,737.38 798.33,771.14"/>
    </edge>

    <tlLogic id="gneJ29" type="static" programID="0" offset="0">
        <phase duration="20" state="rrrGGGGrrrrrrrG"/>
        <phase duration="5"  state="rrryyyyrrrrrrry"/>
        <phase duration="6"  state="rrrGGGGGGrrrrrr"/>
        <phase duration="5"  state="rrryyyyyyrrrrrr"/>
        <phase duration="22" state="GGGGGrGrrrrrrrr"/>
        <phase duration="5"  state="yyyyyryrrrrrrrr"/>
        <phase duration="22" state="GGrrrrrrrGGgGGr"/>
        <phase duration="5"  state="yyrrrrrrryyyyyr"/>
    </tlLogic>

    <junction id="119130692" type="dead_end" x="315.40" y="209.41" incLanes="34631095#4.118_0 34631095#4.118_1" intLanes="" shape="315.40,209.41 318.78,201.72 313.23,213.35"/>
    <junction id="211461502" type="dead_end" x="1137.26" y="1474.61" incLanes="gneE5_0 gneE5_1 gneE5_2" intLanes="" shape="1133.31,1476.58 1144.82,1470.95 1137.26,1474.61"/>
    <junction id="413544452" type="priority" x="686.45" y="768.27" incLanes="-24095610_0" intLanes=":413544452_0_0" shape="686.45,768.27 686.85,769.19 686.45,768.27">
        <request index="0" response="0" foes="0" cont="0"/>
    </junction>
    <junction id="4927571695" type="priority" x="839.06" y="693.71" incLanes="-502199947#0_0 gneE4_0 gneE4_1" intLanes=":4927571695_0_0 :4927571695_0_1 :4927571695_2_0" shape="843.96,694.59 841.26,689.24 838.45,690.38 837.41,690.65 836.37,690.94 835.17,691.40 833.62,692.19 839.48,703.08 841.57,700.35 841.70,698.80 841.84,697.25 842.44,695.82">
        <request index="0" response="000" foes="000" cont="0"/>
        <request index="1" response="000" foes="000" cont="0"/>
        <request index="2" response="000" foes="000" cont="0"/>
    </junction>
    <junction id="4927571700" type="priority" x="799.69" y="776.99" incLanes="34631095#0_0 34631095#0_1 gneE6_0 gneE6_1 gneE6_2" intLanes=":4927571700_0_0 :4927571700_0_1 :4927571700_0_2 :4927571700_3_0 :4927571700_3_1 :4927571700_3_2" shape="793.88,782.54 808.32,775.55 804.46,768.18 788.82,775.72 790.56,778.33 791.37,779.12 792.18,779.91 793.01,780.96">
        <request index="0" response="000000" foes="000000" cont="0"/>
        <request index="1" response="000000" foes="000000" cont="0"/>
        <request index="2" response="000000" foes="000000" cont="0"/>
        <request index="3" response="000000" foes="000000" cont="0"/>
        <request index="4" response="000000" foes="000000" cont="0"/>
        <request index="5" response="000000" foes="000000" cont="0"/>
    </junction>
    <junction id="529392674" type="priority" x="958.08" y="633.61" incLanes="502199947#0_0" intLanes=":529392674_0_0" shape="958.08,633.61 956.73,630.93 958.08,633.61">
        <request index="0" response="0" foes="0" cont="0"/>
    </junction>
    <junction id="gneJ29" type="traffic_light" x="774.29" y="730.24" incLanes="34631095#3_0 34631095#3_1 34631095#3_2 35279828_0 35279828_1 gneE13_0 gneE13_1 gneE13_2 gneE13_3 24095610_0" intLanes=":gneJ29_0_0 :gneJ29_0_1 :gneJ29_2_0 :gneJ29_3_0 :gneJ29_4_0 :gneJ29_5_0 :gneJ29_6_0 :gneJ29_7_0 :gneJ29_8_0 :gneJ29_9_0 :gneJ29_10_0 :gneJ29_15_0 :gneJ29_12_0 :gneJ29_12_1 :gneJ29_14_0" shape="772.33,741.54 785.97,734.14 785.98,732.87 786.48,732.16 787.29,731.41 788.44,730.60 789.91,729.75 784.39,719.95 783.32,720.30 782.86,720.24 782.45,720.03 782.08,719.66 781.76,719.14 767.36,726.76 768.24,729.37 768.17,730.45 767.77,731.37 767.03,732.14 765.96,732.76 766.76,734.59 768.19,735.01 769.07,735.93 770.05,737.33 771.13,739.19">
        <request index="0"  response="000000000000000" foes="100000111000000" cont="0"/>