<?xml version="1.0" encoding="UTF-8"?>

<!-- generated on Sat 02 May 2020 04:09:22 PM PDT by Eclipse sumo netedit Version 1.5.0
<configuration xmlns:xsi="http://www.w3.org/2001/XMLSchema-instance" xsi:noNamespaceSchemaLocation="http://sumo.dlr.de/xsd/netconvertConfiguration.xsd">

    <input>
        <sumo-net-file value="/home/zinoex/Documents/siren/siren/sumo/intersections/aarhus_intersection/osm.net.xml"/>
    </input>

    <output>
        <output-file value="/home/zinoex/Documents/siren/siren/sumo/intersections/aarhus_intersection/osm.net.xml"/>
        <output.street-names value="true"/>
    </output>

    <processing>
        <geometry.min-radius.fix.railways value="false"/>
        <geometry.max-grade.fix value="false"/>
        <offset.disable-normalization value="true"/>
        <lefthand value="false"/>
    </processing>

    <junctions>
        <no-internal-links value="false"/>
        <no-turnarounds value="true"/>
        <junctions.corner-detail value="5"/>
        <junctions.limit-turn-speed value="5.5"/>
        <rectangular-lane-cut value="false"/>
    </junctions>

    <pedestrian>
        <walkingareas value="true"/>
    </pedestrian>

    <report>
        <aggregate-warnings value="5"/>
    </report>

</configuration>
-->

<net version="1.3" junctionCornerDetail="5" walkingareas="true" limitTurnSpeed="5.50" xmlns:xsi="http://www.w3.org/2001/XMLSchema-instance" xsi:noNamespaceSchemaLocation="http://sumo.dlr.de/xsd/net_file.xsd">

    <location netOffset="-578523.66,-6229762.86" convBoundary="315.40,209.41,1137.26,1474.61" origBoundary="10.266177,56.206223,10.300594,56.245021" projParameter="+proj=utm +zone=32 +ellps=WGS84 +datum=WGS84 +units=m +no_defs"/>

    <type id="cycleway.lane" allow="bicycle" bikeLaneWidth="1.00"/>
    <type id="cycleway.opposite_lane" allow="bicycle" bikeLaneWidth="1.00"/>
    <type id="cycleway.opposite_track" allow="bicycle" bikeLaneWidth="1.50"/>
    <type id="cycleway.track" allow="bicycle" bikeLaneWidth="1.50"/>
    <type id="cycleway.track|highway.secondary" priority="11" numLanes="1" speed="13.89" disallow="pedestrian tram rail_urban rail rail_electric ship" oneway="0" sidewalkWidth="3.00" bikeLaneWidth="1.50"/>
    <type id="highway.bridleway" priority="1" numLanes="1" speed="2.78" allow="pedestrian" oneway="1" width="2.00"/>
    <type id="highway.bus_guideway" priority="1" numLanes="1" speed="13.89" allow="bus" oneway="1"/>
    <type id="highway.cycleway" priority="1" numLanes="1" speed="8.33" allow="bicycle" oneway="0" width="1.00"/>
    <type id="highway.footway" priority="1" numLanes="1" speed="2.78" allow="pedestrian" oneway="1" width="2.00"/>
    <type id="highway.ford" priority="1" numLanes="1" speed="2.78" allow="army" oneway="0"/>
    <type id="highway.living_street" priority="2" numLanes="1" speed="2.78" disallow="tram rail_urban rail rail_electric ship" oneway="0"/>
    <type id="highway.motorway" priority="14" numLanes="2" speed="27.78" allow="private emergency authority army vip passenger hov taxi bus coach delivery truck trailer motorcycle evehicle custom1 custom2" oneway="1"/>
    <type id="highway.motorway_link" priority="9" numLanes="1" speed="16.67" allow="private emergency authority army vip passenger hov taxi bus coach delivery truck trailer motorcycle evehicle custom1 custom2" oneway="1"/>
    <type id="highway.path" priority="1" numLanes="1" speed="2.78" allow="pedestrian bicycle" oneway="1" width="2.00"/>
    <type id="highway.pedestrian" priority="1" numLanes="1" speed="2.78" allow="pedestrian" oneway="1" width="2.00"/>
    <type id="highway.primary" priority="12" numLanes="2" speed="13.89" disallow="pedestrian tram rail_urban rail rail_electric ship" oneway="0" sidewalkWidth="3.00"/>
    <type id="highway.primary_link" priority="7" numLanes="1" speed="13.89" disallow="pedestrian tram rail_urban rail rail_electric ship" oneway="0" sidewalkWidth="3.00"/>
    <type id="highway.raceway" priority="15" numLanes="2" speed="83.33" allow="vip" oneway="0"/>
    <type id="highway.residential" priority="3" numLanes="1" speed="13.89" disallow="pedestrian tram rail_urban rail rail_electric ship" oneway="0" sidewalkWidth="2.00"/>
    <type id="highway.secondary" priority="11" numLanes="1" speed="13.89" disallow="pedestrian tram rail_urban rail rail_electric ship" oneway="0" sidewalkWidth="3.00"/>
    <type id="highway.secondary_link" priority="6" numLanes="1" speed="13.89" disallow="pedestrian tram rail_urban rail rail_electric ship" oneway="0" sidewalkWidth="3.00"/>
    <type id="highway.service" priority="1" numLanes="1" speed="5.56" allow="pedestrian delivery bicycle" oneway="0"/>
    <type id="highway.stairs" priority="1" numLanes="1" speed="1.39" allow="pedestrian" oneway="1" width="2.00"/>
    <type id="highway.step" priority="1" numLanes="1" speed="1.39" allow="pedestrian" oneway="1" width="2.00"/>
    <type id="highway.steps" priority="1" numLanes="1" speed="1.39" allow="pedestrian" oneway="1" width="2.00"/>
    <type id="highway.tertiary" priority="10" numLanes="1" speed="13.89" disallow="pedestrian tram rail_urban rail rail_electric ship" oneway="0" sidewalkWidth="3.00"/>
    <type id="highway.tertiary_link" priority="5" numLanes="1" speed="13.89" disallow="pedestrian tram rail_urban rail rail_electric ship" oneway="0" sidewalkWidth="2.00"/>
    <type id="highway.track" priority="1" numLanes="1" speed="5.56" disallow="tram rail_urban rail rail_electric ship" oneway="0"/>
    <type id="highway.trunk" priority="13" numLanes="2" speed="13.89" disallow="pedestrian bicycle tram rail_urban rail rail_electric ship" oneway="0"/>
    <type id="highway.trunk_link" priority="8" numLanes="1" speed="13.89" disallow="pedestrian bicycle tram rail_urban rail rail_electric ship" oneway="0"/>
    <type id="highway.unclassified" priority="4" numLanes="1" speed="13.89" disallow="pedestrian tram rail_urban rail rail_electric ship" oneway="0" sidewalkWidth="2.00"/>
    <type id="highway.unsurfaced" priority="1" numLanes="1" speed="8.33" disallow="tram rail_urban rail rail_electric ship" oneway="0"/>
    <type id="railway.highspeed" priority="21" numLanes="1" speed="69.44" allow="rail_electric" oneway="1"/>
    <type id="railway.light_rail" priority="19" numLanes="1" speed="27.78" allow="rail_urban" oneway="1"/>
    <type id="railway.preserved" priority="16" numLanes="1" speed="27.78" allow="rail" oneway="1"/>
    <type id="railway.rail" priority="20" numLanes="1" speed="44.44" allow="rail" oneway="1"/>
    <type id="railway.subway" priority="18" numLanes="1" speed="27.78" allow="rail_urban" oneway="1"/>
    <type id="railway.tram" priority="17" numLanes="1" speed="13.89" allow="tram" oneway="1"/>

    <edge id=":413544452_0" function="internal">
        <lane id=":413544452_0_0" index="0" allow="bicycle" speed="2.04" length="1.46" width="1.00" shape="686.65,768.73 686.21,768.65 685.99,768.47 686.01,768.19 686.25,767.81"/>
    </edge>
    <edge id=":4927571695_0" function="internal">
        <lane id=":4927571695_0_0" index="0" allow="private emergency authority army vip passenger hov taxi bus coach delivery truck trailer motorcycle moped bicycle evehicle" speed="18.05" length="9.27" width="3.00" shape="843.29,693.26 841.36,695.18 841.01,697.47 840.66,699.78 838.77,701.76"/>
        <lane id=":4927571695_0_1" index="1" allow="private emergency authority army vip passenger hov taxi bus coach delivery truck trailer motorcycle moped bicycle evehicle" speed="18.05" length="9.27" shape="843.29,693.26 841.30,694.67 840.27,696.11 839.26,697.56 837.30,699.03"/>
    </edge>
    <edge id=":4927571695_2" function="internal">
        <lane id=":4927571695_2_0" index="0" allow="private emergency authority army vip passenger hov taxi bus coach delivery truck trailer motorcycle moped bicycle evehicle" speed="13.89" length="8.10" width="3.00" shape="835.04,694.83 841.93,690.58"/>
    </edge>
    <edge id=":529392674_0" function="internal">
        <lane id=":529392674_0_0" index="0" allow="private emergency authority army vip passenger hov taxi bus coach delivery truck trailer motorcycle moped bicycle evehicle" speed="3.53" length="4.38" width="3.00" shape="957.40,632.27 958.75,632.43 959.42,632.93 959.42,633.77 958.76,634.95"/>
    </edge>
    <edge id=":gneJ29_0" function="internal">
        <lane id=":gneJ29_0_0" index="0" allow="private emergency authority army vip passenger hov taxi bus coach delivery truck trailer motorcycle evehicle custom1 custom2" speed="13.89" length="13.53" shape="772.53,739.18 771.53,735.38 771.52,732.55 771.39,729.79 770.01,726.17"/>
        <lane id=":gneJ29_0_1" index="1" allow="private emergency authority army vip passenger hov taxi bus coach delivery truck trailer motorcycle evehicle custom1 custom2" speed="13.89" length="13.53" shape="775.45,737.89 774.42,734.01 774.40,731.13 774.24,728.32 772.81,724.63"/>
    </edge>
    <edge id=":gneJ29_2" function="internal">
        <lane id=":gneJ29_2_0" index="0" allow="private emergency authority army vip passenger hov taxi bus coach delivery truck trailer motorcycle evehicle" speed="10.20" length="4.75" width="2.00" shape="778.38,736.59 777.88,732.62 778.17,731.93"/>
    </edge>
    <edge id=":gneJ29_15" function="internal">
        <lane id=":gneJ29_15_0" index="0" allow="private emergency authority army vip passenger hov taxi bus coach delivery truck trailer motorcycle evehicle" speed="10.20" length="16.65" width="2.00" shape="778.17,731.93 779.59,728.60 783.53,724.55 789.69,720.47"/>
    </edge>
    <edge id=":gneJ29_3" function="internal">
        <lane id=":gneJ29_3_0" index="0" allow="bicycle" speed="6.75" length="5.29" width="2.00" shape="793.26,726.81 790.10,728.68 788.81,729.66"/>
    </edge>
    <edge id=":gneJ29_4" function="internal">
        <lane id=":gneJ29_4_0" index="0" allow="private emergency authority army vip passenger hov taxi bus coach delivery truck trailer motorcycle moped bicycle evehicle" speed="7.56" length="5.02" shape="793.02,726.37 788.88,728.79 788.70,728.92"/>
    </edge>
    <edge id=":gneJ29_5" function="internal">
        <lane id=":gneJ29_5_0" index="0" allow="private emergency authority army vip passenger hov taxi bus coach delivery truck trailer motorcycle moped bicycle evehicle" speed="8.40" length="4.99" shape="793.02,726.37 788.69,728.84"/>
    </edge>
    <edge id=":gneJ29_6" function="internal">
        <lane id=":gneJ29_6_0" index="0" allow="bicycle" speed="15.27" length="27.43" width="1.00" shape="793.50,727.25 786.28,729.98 778.64,731.52 771.79,732.54 766.94,733.72"/>
    </edge>
    <edge id=":gneJ29_7" function="internal">
        <lane id=":gneJ29_7_0" index="0" allow="private emergency authority army vip passenger hov taxi bus coach delivery truck trailer motorcycle evehicle" speed="10.60" length="25.60" shape="793.02,726.37 784.96,729.93 778.43,731.08 773.45,729.83 770.01,726.17"/>
    </edge>
    <edge id=":gneJ29_8" function="internal">
        <lane id=":gneJ29_8_0" index="0" allow="private emergency authority army vip passenger hov taxi bus coach delivery truck trailer motorcycle evehicle" speed="9.57" length="20.59" shape="791.50,723.67 784.77,726.73 779.41,727.90 775.43,727.20 772.81,724.63"/>
    </edge>
    <edge id=":gneJ29_16" function="internal">
        <lane id=":gneJ29_16_0" index="0" allow="bicycle" speed="6.75" length="3.98" width="2.00" shape="788.81,729.66 787.97,730.30 786.88,731.70 786.82,732.85"/>
    </edge>
    <edge id=":gneJ29_17" function="internal">
        <lane id=":gneJ29_17_0" index="0" allow="private emergency authority army vip passenger hov taxi bus coach delivery truck trailer motorcycle moped bicycle evehicle" speed="7.56" length="6.88" shape="788.70,728.92 786.07,730.85 784.59,732.55 784.44,733.90"/>
    </edge>
    <edge id=":gneJ29_18" function="internal">
        <lane id=":gneJ29_18_0" index="0" allow="private emergency authority army vip passenger hov taxi bus coach delivery truck trailer motorcycle moped bicycle evehicle" speed="8.40" length="9.88" shape="788.69,728.84 787.64,729.44 783.92,731.93 781.88,733.85 781.52,735.20"/>
    </edge>
    <edge id=":gneJ29_9" function="internal">
        <lane id=":gneJ29_9_0" index="0" allow="bicycle" speed="5.14" length="5.75" width="2.00" shape="783.57,718.71 784.34,719.55 785.45,719.84 786.91,719.56 788.70,718.73"/>
    </edge>
    <edge id=":gneJ29_10" function="internal">
        <lane id=":gneJ29_10_0" index="0" allow="bicycle" speed="13.89" length="14.63" width="2.00" shape="783.57,718.71 785.10,722.69 785.37,725.70 785.55,728.75 786.82,732.85"/>
    </edge>
    <edge id=":gneJ29_11" function="internal">
        <lane id=":gneJ29_11_0" index="0" allow="private emergency authority army vip passenger hov taxi bus coach delivery truck trailer motorcycle bicycle evehicle" speed="6.60" length="1.71" width="2.00" shape="781.29,719.97 782.41,721.26"/>
    </edge>
    <edge id=":gneJ29_12" function="internal">
        <lane id=":gneJ29_12_0" index="0" allow="private emergency authority army vip passenger hov taxi bus coach delivery truck trailer motorcycle bicycle evehicle" speed="13.89" length="13.62" shape="778.49,721.51 784.44,733.90"/>
        <lane id=":gneJ29_12_1" index="1" allow="private emergency authority army vip passenger hov taxi bus coach delivery truck trailer motorcycle bicycle evehicle" speed="13.89" length="13.62" shape="775.69,723.05 781.52,735.20"/>
    </edge>
    <edge id=":gneJ29_19" function="internal">
        <lane id=":gneJ29_19_0" index="0" allow="private emergency authority army vip passenger hov taxi bus coach delivery truck trailer motorcycle bicycle evehicle" speed="6.60" length="7.79" width="2.00" shape="782.41,721.26 782.62,721.51 784.46,722.11 786.82,721.76 789.69,720.47"/>
    </edge>
    <edge id=":gneJ29_14" function="internal">
        <lane id=":gneJ29_14_0" index="0" allow="bicycle" speed="11.11" length="26.27" width="2.00" shape="766.54,732.81 770.71,730.46 776.08,726.86 782.21,722.72 788.70,718.73"/>
    </edge>
    <edge id=":gneJ29_c0" function="crossing" crossingEdges="gneE6 gneE13">
        <lane id=":gneJ29_c0_0" index="0" allow="pedestrian" speed="1.00" length="10.72" width="4.00" shape="786.92,730.62 785.39,720.01"/>
    </edge>
    <edge id=":gneJ29_w0" function="walkingarea">
        <lane id=":gneJ29_w0_0" index="0" allow="pedestrian" speed="1.00" length="2.24" width="4.00" shape="784.94,730.90 787.73,732.45 789.56,731.64 791.75,728.80 790.16,729.79 788.96,730.64 788.16,731.37 787.75,731.97"/>
    </edge>
    <edge id=":gneJ29_w1" function="walkingarea">
        <lane id=":gneJ29_w1_0" index="0" allow="pedestrian" speed="1.00" length="2.26" width="4.00" shape="786.21,717.28 784.44,718.22 783.41,720.30 784.76,718.60 785.19,718.79 785.75,718.81 786.44,718.66 787.26,718.34"/>
    </edge>
    <edge id=":gneJ41_0" function="internal">
        <lane id=":gneJ41_0_0" index="0" allow="private emergency authority army vip passenger hov taxi bus coach delivery truck trailer motorcycle evehicle custom1 custom2" speed="13.89" length="8.30" shape="794.58,784.09 793.06,782.09 791.41,781.16 789.80,780.21 788.42,778.15"/>
        <lane id=":gneJ41_0_1" index="1" allow="private emergency authority army vip passenger hov taxi bus coach delivery truck trailer motorcycle evehicle custom1 custom2" speed="13.89" length="8.30" shape="797.46,782.68 795.96,780.74 794.33,779.85 792.74,778.94 791.39,776.94"/>
        <lane id=":gneJ41_0_2" index="2" allow="private emergency authority army vip passenger hov taxi bus coach delivery truck trailer motorcycle evehicle custom1 custom2" speed="13.89" length="8.30" shape="797.46,782.68 794.35,775.73"/>
    </edge>
    <edge id=":gneJ43_0" function="internal">
        <lane id=":gneJ43_0_0" index="0" allow="bicycle" speed="13.89" length="8.15" width="2.00" shape="720.03,601.05 721.61,603.02 723.30,603.92 724.96,604.84 726.45,606.86"/>
        <lane id=":gneJ43_0_1" index="1" allow="bicycle" speed="13.89" length="8.15" shape="720.03,601.05 721.29,603.09 722.39,604.35 723.46,605.62 724.64,607.71"/>
        <lane id=":gneJ43_0_2" index="2" allow="private emergency authority army vip passenger hov taxi bus coach delivery truck trailer motorcycle evehicle" speed="13.89" length="8.15" shape="717.72,602.24 721.19,609.31"/>
        <lane id=":gneJ43_0_3" index="3" allow="private emergency authority army vip passenger hov taxi bus coach delivery truck trailer motorcycle evehicle" speed="13.89" length="8.15" shape="714.88,603.72 718.29,610.66"/>
    </edge>

    <edge id="-24095610" from="gneJ29" to="413544452" priority="1" type="highway.cycleway">
        <lane id="-24095610_0" index="0" allow="bicycle" speed="8.33" length="87.59" width="1.00" shape="766.94,733.72 686.65,768.73">
            <param key="origId" value="24095610"/>
        </lane>
    </edge>
    <edge id="-502199947#0" from="529392674" to="4927571695" name="Egå Havvej" priority="10">
        <lane id="-502199947#0_0" index="0" allow="private emergency authority army vip passenger hov taxi bus coach delivery truck trailer motorcycle moped bicycle evehicle" speed="13.89" length="129.36" width="3.00" shape="958.76,634.95 843.29,693.26">
            <param key="origId" value="502199947"/>
        </lane>
    </edge>
    <edge id="24095610" from="413544452" to="gneJ29" priority="1" type="highway.cycleway">
        <lane id="24095610_0" index="0" allow="bicycle" speed="8.33" length="87.59" width="1.00" shape="686.25,767.81 766.54,732.81">
            <param key="origId" value="24095610"/>
        </lane>
    </edge>
    <edge id="35279828" from="4927571695" to="gneJ29" name="Egå Havvej" priority="10" type="highway.tertiary" spreadType="center" shape="841.57,698.44 782.85,730.03">
        <lane id="35279828_0" index="0" allow="private emergency authority army vip passenger hov taxi bus coach delivery truck trailer motorcycle moped bicycle evehicle" speed="22.22" length="51.98" width="3.00" shape="838.77,701.76 793.02,726.37">
            <param key="origId" value="35279828"/>
        </lane>
        <lane id="35279828_1" index="1" allow="private emergency authority army vip passenger hov taxi bus coach delivery truck trailer motorcycle moped bicycle evehicle" speed="22.22" length="51.98" shape="837.30,699.03 791.50,723.67">
            <param key="origId" value="35279828"/>
        </lane>
    </edge>
    <edge id="502199947#0" from="4927571695" to="529392674" name="Egå Havvej" priority="10" type="highway.tertiary">
        <lane id="502199947#0_0" index="0" allow="private emergency authority army vip passenger hov taxi bus coach delivery truck trailer motorcycle moped bicycle evehicle" speed="13.89" length="129.36" width="3.00" shape="841.93,690.58 957.40,632.27">
            <param key="origId" value="502199947"/>
        </lane>
    </edge>
    <edge id="gneE13" from="gneJ43" to="gneJ29" priority="-1" shape="715.21,607.83 733.04,646.21 776.94,728.82">
        <lane id="gneE13_0" index="0" allow="pedestrian" speed="13.89" length="125.84" width="2.00" shape="728.26,606.02 744.32,640.60 785.33,717.75"/>
        <lane id="gneE13_1" index="1" allow="bicycle" speed="13.89" length="125.84" width="2.00" shape="726.45,606.86 742.53,641.49 783.57,718.71"/>
        <lane id="gneE13_2" index="2" allow="private emergency authority army vip passenger hov taxi bus coach delivery truck trailer motorcycle bicycle evehicle" speed="13.89" length="125.84" shape="724.09,607.96 740.21,642.65 781.29,719.97"/>
        <lane id="gneE13_3" index="3" allow="private emergency authority army vip passenger hov taxi bus coach delivery truck trailer motorcycle bicycle evehicle" speed="13.89" length="125.84" shape="721.19,609.31 737.34,644.07 778.49,721.51"/>
        <lane id="gneE13_4" index="4" allow="private emergency authority army vip passenger hov taxi bus coach delivery truck trailer motorcycle bicycle evehicle" speed="13.89" length="125.84" shape="718.29,610.66 734.47,645.50 775.69,723.05"/>
    </edge>
    <edge id="gneE14" from="119130692" to="gneJ43" priority="-1" shape="315.40,209.41 378.25,237.00 398.50,247.95 464.87,290.77 539.74,355.69 591.87,413.45 633.69,464.88 675.63,531.62 715.21,607.83">
        <lane id="gneE14_0" index="0" allow="bicycle" speed="13.89" length="577.85" width="2.00" shape="318.37,202.63 381.50,230.35 402.27,241.58 469.32,284.84 544.93,350.40 597.49,408.63 639.72,460.56 682.06,527.94 720.03,601.05"/>
        <lane id="gneE14_1" index="1" allow="private emergency authority army vip passenger hov taxi bus coach delivery truck trailer motorcycle moped evehicle" speed="13.89" length="577.85" shape="317.33,205.01 380.36,232.68 400.95,243.82 467.76,286.92 543.11,352.26 595.52,410.33 637.60,462.08 679.80,529.23 717.72,602.24"/>
        <lane id="gneE14_2" index="2" allow="private emergency authority army vip passenger hov taxi bus coach delivery truck trailer motorcycle moped evehicle" speed="13.89" length="577.85" shape="316.04,207.94 378.95,235.56 399.32,246.57 465.83,289.49 540.86,354.55 593.09,412.41 634.99,463.95 677.02,530.82 714.88,603.72"/>
    </edge>
    <edge id="gneE15" from="gneJ29" to="119130692" priority="-1" shape="776.94,728.82 731.71,646.54 713.14,606.02 673.95,532.58 631.29,466.44 590.59,414.11 538.75,356.25 464.17,291.79 397.22,250.44 377.53,239.40 315.40,209.41">
        <lane id="gneE15_0" index="0" allow="private emergency authority army vip passenger hov taxi bus coach delivery truck trailer motorcycle evehicle custom1 custom2" speed="13.89" length="705.58" shape="770.01,726.17 727.42,648.70 708.84,608.15 669.81,535.01 627.37,469.22 586.90,417.19 535.38,359.68 461.32,295.67 394.78,254.58 375.31,243.66 313.31,213.73"/>
        <lane id="gneE15_1" index="1" allow="private emergency authority army vip passenger hov taxi bus coach delivery truck trailer motorcycle evehicle custom1 custom2" speed="13.89" length="705.58" shape="772.81,724.63 730.28,647.26 711.71,606.73 672.57,533.39 629.98,467.37 589.36,415.14 537.63,357.39 463.22,293.08 396.41,251.82 376.79,240.82 314.70,210.85"/>
    </edge>
    <edge id="gneE16" from="gneJ41" to="gneJ29" priority="-1">
        <lane id="gneE16_0" index="0" allow="private emergency authority army vip passenger hov taxi bus coach delivery truck trailer motorcycle evehicle custom1 custom2" speed="13.89" length="42.18" shape="788.42,778.15 772.53,739.18"/>
        <lane id="gneE16_1" index="1" allow="private emergency authority army vip passenger hov taxi bus coach delivery truck trailer motorcycle evehicle custom1 custom2" speed="13.89" length="42.18" shape="791.39,776.94 775.45,737.89"/>
        <lane id="gneE16_2" index="2" allow="private emergency authority army vip passenger hov taxi bus coach delivery truck trailer motorcycle evehicle custom1 custom2" speed="13.89" length="42.18" shape="794.35,775.73 778.38,736.59"/>
    </edge>
    <edge id="gneE19" from="211461502" to="gneJ41" priority="-1">
        <lane id="gneE19_0" index="0" allow="private emergency authority army vip passenger hov taxi bus coach delivery truck trailer motorcycle evehicle custom1 custom2" speed="13.89" length="770.86" shape="1132.95,1476.72 794.58,784.09"/>
        <lane id="gneE19_1" index="1" allow="private emergency authority army vip passenger hov taxi bus coach delivery truck trailer motorcycle evehicle custom1 custom2" speed="13.89" length="770.86" shape="1135.82,1475.31 797.46,782.68"/>
    </edge>
    <edge id="gneE4" from="gneJ29" to="4927571695" priority="-1">
        <lane id="gneE4_0" index="0" allow="bicycle" speed="13.89" length="52.12" width="2.00" shape="788.70,718.73 834.09,693.07"/>
        <lane id="gneE4_1" index="1" allow="private emergency authority army vip passenger hov taxi bus coach delivery truck trailer motorcycle moped bicycle evehicle" speed="13.89" length="52.12" width="2.00" shape="789.69,720.47 835.04,694.83"/>
    </edge>
    <edge id="gneE6" from="gneJ29" to="211461502" priority="-1" shape="776.94,728.82 798.42,777.30 1137.26,1474.61">
        <lane id="gneE6_0" index="0" allow="pedestrian" speed="13.89" length="820.41" width="2.00" shape="788.65,732.04 806.95,773.34 1145.71,1470.50"/>
        <lane id="gneE6_1" index="1" allow="bicycle" speed="13.89" length="820.41" width="2.00" shape="786.82,732.85 805.13,774.18 1143.92,1471.38"/>
        <lane id="gneE6_2" index="2" allow="private emergency authority army vip passenger hov taxi bus coach delivery truck trailer motorcycle moped bicycle evehicle" speed="13.89" length="820.41" shape="784.44,733.90 802.77,775.28 1141.58,1472.51"/>
        <lane id="gneE6_3" index="3" allow="private emergency authority army vip passenger hov taxi bus coach delivery truck trailer motorcycle moped bicycle evehicle" speed="13.89" length="820.41" shape="781.52,735.20 799.87,776.63 1138.70,1473.91"/>
    </edge>

    <tlLogic id="gneJ29" type="static" programID="0" offset="0">
        <phase duration="24" state="rrrgggGrrrrrrrGGr"/>
        <phase duration="5"  state="rrrgggGrrrrrrrGrr"/>
        <phase duration="5"  state="rrryyyyrrrrrrryrr"/>
        <phase duration="6"  state="rrrGGGGGGrrrrrrrr"/>
        <phase duration="5"  state="rrryyyyyyrrrrrrrr"/>
        <phase duration="29" state="GGgrrrrrrGGgGGrrr"/>
        <phase duration="5"  state="yygrrrrrryyyyyrrr"/>
        <phase duration="6"  state="GGGrrrrrrrrrrrrrr"/>
        <phase duration="5"  state="yyyrrrrrrrrrrrrrr"/>
    </tlLogic>

    <junction id="119130692" type="dead_end" x="315.40" y="209.41" incLanes="gneE15_0 gneE15_1" intLanes="" shape="315.40,209.41 318.78,201.72 312.62,215.17"/>
    <junction id="211461502" type="dead_end" x="1137.26" y="1474.61" incLanes="gneE6_0 gneE6_1 gneE6_2 gneE6_3" intLanes="" shape="1137.26,1474.61 1131.51,1477.42 1146.61,1470.06"/>
    <junction id="413544452" type="priority" x="686.45" y="768.27" incLanes="-24095610_0" intLanes=":413544452_0_0" shape="686.45,768.27 686.85,769.19 686.45,768.27">
        <request index="0" response="0" foes="0" cont="0"/>
    </junction>
    <junction id="4927571695" type="priority" x="839.06" y="693.71" incLanes="-502199947#0_0 gneE4_0 gneE4_1" intLanes=":4927571695_0_0 :4927571695_0_1 :4927571695_2_0" shape="843.96,694.59 841.26,689.24 838.45,690.38 837.40,690.65 836.37,690.94 835.17,691.40 833.62,692.19 839.48,703.09 841.57,700.35 841.70,698.80 841.84,697.25 842.44,695.82">
        <request index="0" response="000" foes="000" cont="0"/>
        <request index="1" response="000" foes="000" cont="0"/>
        <request index="2" response="000" foes="000" cont="0"/>
    </junction>
    <junction id="529392674" type="priority" x="958.08" y="633.61" incLanes="502199947#0_0" intLanes=":529392674_0_0" shape="958.08,633.61 956.73,630.93 958.08,633.61">
        <request index="0" response="0" foes="0" cont="0"/>
    </junction>
    <junction id="gneJ29" type="traffic_light" x="776.94" y="728.82" incLanes="gneE16_0 gneE16_1 gneE16_2 35279828_0 35279828_1 gneE13_0 gneE13_1 gneE13_2 gneE13_3 gneE13_4 24095610_0 :gneJ29_w0_0" intLanes=":gneJ29_0_0 :gneJ29_0_1 :gneJ29_15_0 :gneJ29_16_0 :gneJ29_17_0 :gneJ29_18_0 :gneJ29_6_0 :gneJ29_7_0 :gneJ29_8_0 :gneJ29_9_0 :gneJ29_10_0 :gneJ29_19_0 :gneJ29_12_0 :gneJ29_12_1 :gneJ29_14_0 :gneJ29_c0_0" shape="771.06,739.83 789.56,731.64 789.76,730.59 790.31,729.96 791.16,729.27 792.31,728.51 793.76,727.68 788.21,717.85 787.41,718.12 787.06,718.08 786.74,717.92 786.45,717.65 786.20,717.27 768.60,726.94 769.22,729.13 769.02,730.08 768.47,730.93 767.58,731.69 766.34,732.35 767.14,734.18 768.19,734.54 768.81,735.30 769.49,736.43 770.25,737.94">
        <request index="0"  response="0100000111000000" foes="0100000111000000" cont="0"/>
        <request index="1"  response="0100000111000000" foes="0100000111000000" cont="0"/>
        <request index="2"  response="0011110111000000" foes="0011110111000000" cont="1"/>
        <request index="3"  response="1000000000000000" foes="1000010000000000" cont="1"/>
        <request index="4"  response="1000000000000000" foes="1011010000000000" cont="1"/>
        <request index="5"  response="1000000000000000" foes="1011010000000000" cont="1"/>
        <request index="6"  response="0000000000000100" foes="0011010000000111" cont="0"/>
        <request index="7"  response="0100000000000100" foes="0111010000000111" cont="0"/>
        <request index="8"  response="0100000000000100" foes="0111010000000111" cont="0"/>
        <request index="9"  response="1100000000000000" foes="1100000000000000" cont="0"/>
        <request index="10" response="1100000111111000" foes="1100100111111100" cont="0"/>
        <request index="11" response="1100010000000000" foes="1100010000000100" cont="1"/>
        <request index="12" response="1100000111110000" foes="1100000111110100" cont="0"/>
        <request index="13" response="1100000111110000" foes="1100000111110100" cont="0"/>
        <request index="14" response="0000100000000000" foes="0011111110000011" cont="0"/>
        <request index="15" response="0000000000000000" foes="0011111000111000" cont="0"/>
    </junction>
    <junction id="gneJ41" type="priority" x="797.26" y="778.63" incLanes="gneE19_0 gneE19_1" intLanes=":gneJ41_0_0 :gneJ41_0_1 :gneJ41_0_2" shape="793.15,784.79 798.90,781.98 795.83,775.13 786.94,778.76 788.86,781.24 789.94,781.82 791.06,782.39 792.14,783.27">
        <request index="0" response="000" foes="000" cont="0"/>
        <request index="1" response="000" foes="000" cont="0"/>
        <request index="2" response="000" foes="000" cont="0"/>
    </junction>
    <junction id="gneJ43" type="priority" x="715.21" y="607.83" incLanes="gneE14_0 gneE14_1 gneE14_2" intLanes=":gneJ43_0_0 :gneJ43_0_1 :gneJ43_0_2 :gneJ43_0_3" shape="716.84,611.33 729.17,605.60 726.62,603.31 725.11,603.06 723.59,602.82 722.16,602.14 720.91,600.58 713.46,604.46">
        <request index="0" response="0000" foes="0000" cont="0"/>
        <request index="1" response="0000" foes="0000" cont="0"/>
        <request index="2" response="0000" foes="0000" cont="0"/>
        <request index="3" response="0000" foes="0000" cont="0"/>
    </junction>
