<?xml version="1.0" encoding="UTF-8"?>

<!-- generated on Sun 03 May 2020 11:41:17 PM PDT by Eclipse SUMO netedit Version 1.5.0
<configuration xmlns:xsi="http://www.w3.org/2001/XMLSchema-instance" xsi:noNamespaceSchemaLocation="http://sumo.dlr.de/xsd/netconvertConfiguration.xsd">

    <input>
        <sumo-net-file value="/home/zinoex/Documents/siren/siren/sumo/intersections/aarhus_intersection/osm.net.xml"/>
    </input>

    <output>
        <output-file value="/home/zinoex/Documents/siren/siren/sumo/intersections/aarhus_intersection/osm.net.xml"/>
        <output.street-names value="true"/>
    </output>

    <processing>
        <geometry.min-radius.fix.railways value="false"/>
        <geometry.max-grade.fix value="false"/>
        <offset.disable-normalization value="true"/>
        <lefthand value="false"/>
    </processing>

    <junctions>
        <no-internal-links value="false"/>
        <no-turnarounds value="true"/>
        <junctions.corner-detail value="5"/>
        <junctions.limit-turn-speed value="5.5"/>
        <rectangular-lane-cut value="false"/>
    </junctions>

    <pedestrian>
        <walkingareas value="true"/>
    </pedestrian>

    <netedit>
        <route-files value="/home/zinoex/Documents/siren/siren/sumo/intersections/aarhus_intersection/osm.rou.xml"/>
    </netedit>

    <report>
        <aggregate-warnings value="5"/>
    </report>

</configuration>
-->

<routes xmlns:xsi="http://www.w3.org/2001/XMLSchema-instance" xsi:noNamespaceSchemaLocation="http://sumo.dlr.de/xsd/routes_file.xsd">
    <route edges="gneE19 gneE16 gneE4" color="yellow" id="a1_left"/>
    <route edges="gneE19 gneE16 gneE15" color="yellow" id="a1_straight"/>
    <route edges="gneE14 gneE13 gneE4 502199947#0" color="yellow" id="a2_right"/>
    <route edges="gneE14 gneE13 gneE6" color="yellow" id="a2_straight"/>
    <route edges="-502199947#0 35279828 gneE15" color="yellow" id="b_left"/>
    <route edges="-502199947#0 35279828 gneE6" color="yellow" id="b_right"/>
    <route edges="24095610 gneE4 502199947#0" color="yellow" id="bike_straight"/>
    <flow id="a1_left_v" begin="0.00" end="864000.00" route="a1_left" vehsPerHour="180.00"/>
    <flow id="a1_straight_v" begin="0.00" end="864000.00" route="a1_straight" vehsPerHour="900.00"/>
    <flow id="a2_right_b" type="DEFAULT_BIKETYPE" end="864000.00" begin="0.00" route="a2_right" vehsPerHour="10.00"/>
    <flow id="a2_right_v" begin="0.00" end="864000.00" route="a2_right" vehsPerHour="180.00"/>
    <flow id="a2_straight_b" type="DEFAULT_BIKETYPE" begin="0.00" end="864000.00" route="a2_straight" vehsPerHour="5.00"/>
    <flow id="a2_straight_v" begin="0.00" end="864000.00" route="a2_straight" vehsPerHour="900.00"/>
    <flow id="b_left_v" begin="0.00" route="b_left" end="86400.00" vehsPerHour="180.00"/>
    <flow id="b_right_b" type="DEFAULT_BIKETYPE" begin="0.00" end="864000.00" route="b_right" vehsPerHour="15.00"/>
    <flow id="b_right_v" begin="0.00" end="864000.00" route="b_right" vehsPerHour="60.00"/>
    <flow id="bike_straight_b" type="DEFAULT_BIKETYPE" begin="0.00" end="864000.00" route="bike_straight" vehsPerHour="15.00"/>
<!--    <personFlow id="crossWalk" begin="0.00" end="864000.00" vehsPerHour="15.00"/>-->
</routes>
