<?xml version="1.0" encoding="UTF-8"?>

<!-- generated on Tue 05 May 2020 03:42:05 PM PDT by Eclipse SUMO netedit Version 1.5.0
<configuration xmlns:xsi="http://www.w3.org/2001/XMLSchema-instance" xsi:noNamespaceSchemaLocation="http://sumo.dlr.de/xsd/netconvertConfiguration.xsd">

    <input>
        <sumo-net-file value="/home/zinoex/Documents/siren/siren/sumo/intersections/aarhus_intersection/osm.net.xml"/>
    </input>

    <output>
        <output-file value="/home/zinoex/Documents/siren/siren/sumo/intersections/aarhus_intersection/osm.net.xml"/>
        <output.street-names value="true"/>
    </output>

    <processing>
        <geometry.min-radius.fix.railways value="false"/>
        <geometry.max-grade.fix value="false"/>
        <offset.disable-normalization value="true"/>
        <lefthand value="false"/>
    </processing>

    <junctions>
        <no-internal-links value="false"/>
        <no-turnarounds value="true"/>
        <junctions.corner-detail value="5"/>
        <junctions.limit-turn-speed value="5.5"/>
        <rectangular-lane-cut value="false"/>
    </junctions>

    <pedestrian>
        <walkingareas value="true"/>
    </pedestrian>

    <report>
        <aggregate-warnings value="5"/>
    </report>

</configuration>
-->

<net version="1.3" junctionCornerDetail="5" walkingareas="true" limitTurnSpeed="5.50" xmlns:xsi="http://www.w3.org/2001/XMLSchema-instance" xsi:noNamespaceSchemaLocation="http://sumo.dlr.de/xsd/net_file.xsd">

    <location netOffset="-578523.66,-6229762.86" convBoundary="315.40,209.41,1137.26,1474.61" origBoundary="10.266177,56.206223,10.300594,56.245021" projParameter="+proj=utm +zone=32 +ellps=WGS84 +datum=WGS84 +units=m +no_defs"/>

    <type id="cycleway.lane" allow="bicycle" bikeLaneWidth="1.00"/>
    <type id="cycleway.opposite_lane" allow="bicycle" bikeLaneWidth="1.00"/>
    <type id="cycleway.opposite_track" allow="bicycle" bikeLaneWidth="1.50"/>
    <type id="cycleway.track" allow="bicycle" bikeLaneWidth="1.50"/>
    <type id="cycleway.track|highway.secondary" priority="11" numLanes="1" speed="13.89" disallow="pedestrian tram rail_urban rail rail_electric ship" oneway="0" sidewalkWidth="3.00" bikeLaneWidth="1.50"/>
    <type id="highway.bridleway" priority="1" numLanes="1" speed="2.78" allow="pedestrian" oneway="1" width="2.00"/>
    <type id="highway.bus_guideway" priority="1" numLanes="1" speed="13.89" allow="bus" oneway="1"/>
    <type id="highway.cycleway" priority="1" numLanes="1" speed="8.33" allow="bicycle" oneway="0" width="1.00"/>
    <type id="highway.footway" priority="1" numLanes="1" speed="2.78" allow="pedestrian" oneway="1" width="2.00"/>
    <type id="highway.ford" priority="1" numLanes="1" speed="2.78" allow="army" oneway="0"/>
    <type id="highway.living_street" priority="2" numLanes="1" speed="2.78" disallow="tram rail_urban rail rail_electric ship" oneway="0"/>
    <type id="highway.motorway" priority="14" numLanes="2" speed="27.78" allow="private emergency authority army vip passenger hov taxi bus coach delivery truck trailer motorcycle evehicle custom1 custom2" oneway="1"/>
    <type id="highway.motorway_link" priority="9" numLanes="1" speed="16.67" allow="private emergency authority army vip passenger hov taxi bus coach delivery truck trailer motorcycle evehicle custom1 custom2" oneway="1"/>
    <type id="highway.path" priority="1" numLanes="1" speed="2.78" allow="pedestrian bicycle" oneway="1" width="2.00"/>
    <type id="highway.pedestrian" priority="1" numLanes="1" speed="2.78" allow="pedestrian" oneway="1" width="2.00"/>
    <type id="highway.primary" priority="12" numLanes="2" speed="13.89" disallow="pedestrian tram rail_urban rail rail_electric ship" oneway="0" sidewalkWidth="3.00"/>
    <type id="highway.primary_link" priority="7" numLanes="1" speed="13.89" disallow="pedestrian tram rail_urban rail rail_electric ship" oneway="0" sidewalkWidth="3.00"/>
    <type id="highway.raceway" priority="15" numLanes="2" speed="83.33" allow="vip" oneway="0"/>
    <type id="highway.residential" priority="3" numLanes="1" speed="13.89" disallow="pedestrian tram rail_urban rail rail_electric ship" oneway="0" sidewalkWidth="2.00"/>
    <type id="highway.secondary" priority="11" numLanes="1" speed="13.89" disallow="pedestrian tram rail_urban rail rail_electric ship" oneway="0" sidewalkWidth="3.00"/>
    <type id="highway.secondary_link" priority="6" numLanes="1" speed="13.89" disallow="pedestrian tram rail_urban rail rail_electric ship" oneway="0" sidewalkWidth="3.00"/>
    <type id="highway.service" priority="1" numLanes="1" speed="5.56" allow="pedestrian delivery bicycle" oneway="0"/>
    <type id="highway.stairs" priority="1" numLanes="1" speed="1.39" allow="pedestrian" oneway="1" width="2.00"/>
    <type id="highway.step" priority="1" numLanes="1" speed="1.39" allow="pedestrian" oneway="1" width="2.00"/>
    <type id="highway.steps" priority="1" numLanes="1" speed="1.39" allow="pedestrian" oneway="1" width="2.00"/>
    <type id="highway.tertiary" priority="10" numLanes="1" speed="13.89" disallow="pedestrian tram rail_urban rail rail_electric ship" oneway="0" sidewalkWidth="3.00"/>
    <type id="highway.tertiary_link" priority="5" numLanes="1" speed="13.89" disallow="pedestrian tram rail_urban rail rail_electric ship" oneway="0" sidewalkWidth="2.00"/>
    <type id="highway.track" priority="1" numLanes="1" speed="5.56" disallow="tram rail_urban rail rail_electric ship" oneway="0"/>
    <type id="highway.trunk" priority="13" numLanes="2" speed="13.89" disallow="pedestrian bicycle tram rail_urban rail rail_electric ship" oneway="0"/>
    <type id="highway.trunk_link" priority="8" numLanes="1" speed="13.89" disallow="pedestrian bicycle tram rail_urban rail rail_electric ship" oneway="0"/>
    <type id="highway.unclassified" priority="4" numLanes="1" speed="13.89" disallow="pedestrian tram rail_urban rail rail_electric ship" oneway="0" sidewalkWidth="2.00"/>
    <type id="highway.unsurfaced" priority="1" numLanes="1" speed="8.33" disallow="tram rail_urban rail rail_electric ship" oneway="0"/>
    <type id="railway.highspeed" priority="21" numLanes="1" speed="69.44" allow="rail_electric" oneway="1"/>
    <type id="railway.light_rail" priority="19" numLanes="1" speed="27.78" allow="rail_urban" oneway="1"/>
    <type id="railway.preserved" priority="16" numLanes="1" speed="27.78" allow="rail" oneway="1"/>
    <type id="railway.rail" priority="20" numLanes="1" speed="44.44" allow="rail" oneway="1"/>
    <type id="railway.subway" priority="18" numLanes="1" speed="27.78" allow="rail_urban" oneway="1"/>
    <type id="railway.tram" priority="17" numLanes="1" speed="13.89" allow="tram" oneway="1"/>

    <edge id=":4927571695_0" function="internal">
        <lane id=":4927571695_0_0" index="0" allow="private emergency authority army vip passenger hov taxi bus coach delivery truck trailer motorcycle moped bicycle evehicle" speed="18.05" length="9.40" width="3.00" shape="891.54,669.97 889.61,671.98 889.23,674.31 888.84,676.62 886.88,678.58"/>
        <lane id=":4927571695_0_1" index="1" allow="private emergency authority army vip passenger hov taxi bus coach delivery truck trailer motorcycle evehicle" speed="18.05" length="9.40" shape="891.54,669.97 889.55,671.46 888.52,672.92 887.48,674.37 885.47,675.82"/>
    </edge>
    <edge id=":4927571695_2" function="internal">
        <lane id=":4927571695_2_0" index="0" allow="bicycle" speed="13.89" length="8.04" width="2.00" shape="882.37,669.76 884.40,668.51 885.66,667.46 886.91,666.39 888.93,665.13"/>
        <lane id=":4927571695_2_1" index="1" allow="private emergency authority army vip passenger hov taxi bus coach delivery truck trailer motorcycle evehicle" speed="13.89" length="8.04" width="3.00" shape="883.28,671.54 890.12,667.33"/>
    </edge>
    <edge id=":gneJ29_0" function="internal">
        <lane id=":gneJ29_0_0" index="0" allow="private emergency authority army vip passenger hov taxi bus coach delivery truck trailer motorcycle evehicle custom1 custom2" speed="18.05" length="13.18" shape="772.91,739.13 771.78,735.49 771.70,732.75 771.55,730.05 770.19,726.51"/>
        <lane id=":gneJ29_0_1" index="1" allow="private emergency authority army vip passenger hov taxi bus coach delivery truck trailer motorcycle evehicle custom1 custom2" speed="18.05" length="13.18" shape="775.84,737.84 774.67,734.12 774.57,731.33 774.39,728.58 773.00,724.97"/>
    </edge>
    <edge id=":gneJ29_2" function="internal">
        <lane id=":gneJ29_2_0" index="0" allow="private emergency authority army vip passenger hov taxi bus coach delivery truck trailer motorcycle evehicle" speed="9.83" length="21.09" width="2.00" shape="778.76,736.54 778.08,732.61 779.70,728.69 783.61,724.78 789.82,720.89"/>
    </edge>
    <edge id=":gneJ29_3" function="internal">
        <lane id=":gneJ29_3_0" index="0" allow="bicycle" speed="6.61" length="5.00" width="2.00" shape="793.11,727.14 790.02,728.88 788.86,729.75"/>
    </edge>
    <edge id=":gneJ29_4" function="internal">
        <lane id=":gneJ29_4_0" index="0" allow="private emergency authority army vip passenger hov taxi bus coach delivery truck trailer motorcycle evehicle" speed="7.44" length="4.67" shape="792.88,726.69 788.80,728.97"/>
    </edge>
    <edge id=":gneJ29_5" function="internal">
        <lane id=":gneJ29_5_0" index="0" allow="private emergency authority army vip passenger hov taxi bus coach delivery truck trailer motorcycle evehicle" speed="8.27" length="4.70" shape="792.88,726.69 788.75,728.94"/>
    </edge>
    <edge id=":gneJ29_6" function="internal">
        <lane id=":gneJ29_6_0" index="0" allow="bicycle" speed="15.27" length="27.14" width="1.00" shape="793.34,727.58 786.11,730.18 778.54,731.60 771.78,732.55 766.98,733.71"/>
    </edge>
    <edge id=":gneJ29_7" function="internal">
        <lane id=":gneJ29_7_0" index="0" allow="private emergency authority army vip passenger hov taxi bus coach delivery truck trailer motorcycle evehicle" speed="10.58" length="19.04" shape="792.88,726.69 784.85,730.07 778.40,731.16 774.72,730.27"/>
    </edge>
    <edge id=":gneJ29_8" function="internal">
        <lane id=":gneJ29_8_0" index="0" allow="private emergency authority army vip passenger hov taxi bus coach delivery truck trailer motorcycle evehicle" speed="9.55" length="13.73" shape="791.43,723.95 784.72,726.86 779.41,728.00 778.44,727.84"/>
    </edge>
    <edge id=":gneJ29_15" function="internal">
        <lane id=":gneJ29_15_0" index="0" allow="bicycle" speed="6.61" length="4.01" width="2.00" shape="788.86,729.75 787.95,730.43 786.90,731.79 786.86,732.95"/>
    </edge>
    <edge id=":gneJ29_16" function="internal">
        <lane id=":gneJ29_16_0" index="0" allow="private emergency authority army vip passenger hov taxi bus coach delivery truck trailer motorcycle evehicle" speed="7.44" length="6.99" shape="788.80,728.97 786.04,730.95 784.60,732.63 784.49,734.00"/>
    </edge>
    <edge id=":gneJ29_17" function="internal">
        <lane id=":gneJ29_17_0" index="0" allow="private emergency authority army vip passenger hov taxi bus coach delivery truck trailer motorcycle evehicle" speed="8.27" length="9.94" shape="788.75,728.94 787.55,729.60 783.88,732.00 781.89,733.90 781.56,735.30"/>
    </edge>
    <edge id=":gneJ29_18" function="internal">
        <lane id=":gneJ29_18_0" index="0" allow="private emergency authority army vip passenger hov taxi bus coach delivery truck trailer motorcycle evehicle" speed="10.58" length="6.04" shape="774.72,730.27 773.51,729.98 770.19,726.51"/>
    </edge>
    <edge id=":gneJ29_19" function="internal">
        <lane id=":gneJ29_19_0" index="0" allow="private emergency authority army vip passenger hov taxi bus coach delivery truck trailer motorcycle evehicle" speed="9.55" length="6.44" shape="778.44,727.84 775.50,727.37 773.00,724.97"/>
    </edge>
    <edge id=":gneJ29_9" function="internal">
        <lane id=":gneJ29_9_0" index="0" allow="bicycle" speed="5.17" length="5.70" width="2.00" shape="783.76,719.06 784.51,719.87 785.61,720.16 787.07,719.91 788.88,719.12"/>
    </edge>
    <edge id=":gneJ29_10" function="internal">
        <lane id=":gneJ29_10_0" index="0" allow="bicycle" speed="13.89" length="14.36" width="2.00" shape="783.76,719.06 785.25,722.97 785.48,725.92 785.63,728.92 786.86,732.95"/>
    </edge>
    <edge id=":gneJ29_11" function="internal">
        <lane id=":gneJ29_11_0" index="0" allow="private emergency authority army vip passenger hov taxi bus coach delivery truck trailer motorcycle evehicle" speed="6.62" length="9.38" width="2.00" shape="781.48,720.31 782.77,721.81 784.60,722.40 786.94,722.10 789.82,720.89"/>
    </edge>
    <edge id=":gneJ29_12" function="internal">
        <lane id=":gneJ29_12_0" index="0" allow="private emergency authority army vip passenger hov taxi bus coach delivery truck trailer motorcycle evehicle" speed="13.89" length="13.33" shape="778.67,721.85 784.49,734.00"/>
        <lane id=":gneJ29_12_1" index="1" allow="private emergency authority army vip passenger hov taxi bus coach delivery truck trailer motorcycle evehicle" speed="13.89" length="13.33" shape="775.87,723.39 781.56,735.30"/>
    </edge>
    <edge id=":gneJ29_14" function="internal">
        <lane id=":gneJ29_14_0" index="0" allow="bicycle" speed="11.11" length="26.16" width="2.00" shape="766.58,732.79 770.76,730.47 776.14,726.96 782.31,722.95 788.88,719.12"/>
    </edge>
    <edge id=":gneJ29_c0" function="crossing" crossingEdges="gneE6 gneE13">
        <lane id=":gneJ29_c0_0" index="0" allow="pedestrian" speed="1.00" length="10.46" width="4.00" shape="786.97,730.72 785.58,720.36"/>
    </edge>
    <edge id=":gneJ29_w0" function="walkingarea">
        <lane id=":gneJ29_w0_0" index="0" allow="pedestrian" speed="1.00" length="2.24" width="4.00" shape="784.99,730.98 787.78,732.55 789.61,731.74 791.64,729.06 790.10,729.97 788.94,730.78 788.17,731.48 787.78,732.07"/>
    </edge>
    <edge id=":gneJ29_w1" function="walkingarea">
        <lane id=":gneJ29_w1_0" index="0" allow="pedestrian" speed="1.00" length="2.26" width="4.00" shape="786.39,717.63 784.63,718.56 783.60,720.62 784.93,718.94 785.36,719.12 785.92,719.14 786.62,719.00 787.45,718.70"/>
    </edge>
    <edge id=":gneJ41_0" function="internal">
        <lane id=":gneJ41_0_0" index="0" allow="private emergency authority army vip passenger hov taxi bus coach delivery truck trailer motorcycle evehicle custom1 custom2" speed="22.22" length="8.52" shape="829.83,853.83 828.30,851.83 826.64,850.91 824.99,849.98 823.49,847.96"/>
        <lane id=":gneJ41_0_1" index="1" allow="private emergency authority army vip passenger hov taxi bus coach delivery truck trailer motorcycle evehicle custom1 custom2" speed="22.22" length="8.52" shape="832.71,852.43 831.18,850.44 829.53,849.53 827.88,848.62 826.40,846.61"/>
        <lane id=":gneJ41_0_2" index="2" allow="private emergency authority army vip passenger hov taxi bus coach delivery truck trailer motorcycle evehicle custom1 custom2" speed="22.22" length="8.52" shape="832.71,852.43 829.30,845.26"/>
    </edge>
    <edge id=":gneJ43_0" function="internal">
        <lane id=":gneJ43_0_0" index="0" allow="bicycle" speed="13.89" length="8.12" width="2.00" shape="720.03,601.05 721.61,603.02 723.30,603.92 724.96,604.84 726.45,606.86"/>
        <lane id=":gneJ43_0_1" index="1" disallow="all" speed="13.89" length="8.12" shape="720.03,601.05 724.09,607.96"/>
        <lane id=":gneJ43_0_2" index="2" allow="private emergency authority army vip passenger hov taxi bus coach delivery truck trailer motorcycle evehicle" speed="13.89" length="8.12" shape="717.72,602.24 721.19,609.31"/>
        <lane id=":gneJ43_0_3" index="3" allow="private emergency authority army vip passenger hov taxi bus coach delivery truck trailer motorcycle evehicle" speed="13.89" length="8.12" shape="714.88,603.72 718.29,610.66"/>
    </edge>

    <edge id="-24095610" from="gneJ29" to="413544452" priority="1" type="highway.cycleway">
        <lane id="-24095610_0" index="0" allow="bicycle" speed="8.33" length="87.64" width="1.00" shape="766.98,733.71 686.65,768.73">
            <param key="origId" value="24095610"/>
        </lane>
    </edge>
    <edge id="-502199947#0" from="529392674" to="4927571695" name="Egå Havvej" priority="10">
        <lane id="-502199947#0_0" index="0" allow="private emergency authority army vip passenger hov taxi bus coach delivery truck trailer motorcycle moped bicycle evehicle" speed="13.89" length="151.11" width="3.00" shape="1024.52,598.21 891.54,669.97">
            <param key="origId" value="502199947"/>
        </lane>
    </edge>
    <edge id="24095610" from="413544452" to="gneJ29" priority="1" type="highway.cycleway">
        <lane id="24095610_0" index="0" allow="bicycle" speed="8.33" length="87.64" width="1.00" shape="686.25,767.81 766.58,732.79">
            <param key="origId" value="24095610"/>
        </lane>
    </edge>
    <edge id="35279828" from="4927571695" to="gneJ29" name="Egå Havvej" priority="10" type="highway.tertiary" spreadType="center" shape="889.81,675.28 782.85,730.03">
        <lane id="35279828_0" index="0" allow="private emergency authority army vip passenger hov taxi bus coach delivery truck trailer motorcycle moped bicycle evehicle" speed="22.22" length="105.62" width="3.00" shape="886.88,678.58 792.88,726.69">
            <param key="origId" value="35279828"/>
        </lane>
        <lane id="35279828_1" index="1" allow="private emergency authority army vip passenger hov taxi bus coach delivery truck trailer motorcycle evehicle" speed="22.22" length="105.62" shape="885.47,675.82 791.43,723.95">
            <param key="origId" value="35279828"/>
        </lane>
    </edge>
    <edge id="502199947#0" from="4927571695" to="529392674" name="Egå Havvej" priority="10" type="highway.tertiary">
        <lane id="502199947#0_0" index="0" allow="bicycle" speed="13.89" length="151.11" width="2.00" shape="888.93,665.13 1021.91,593.37">
            <param key="origId" value="502199947"/>
        </lane>
        <lane id="502199947#0_1" index="1" allow="private emergency authority army vip passenger hov taxi bus coach delivery truck trailer motorcycle moped bicycle evehicle" speed="13.89" length="151.11" width="3.00" shape="890.12,667.33 1023.10,595.57">
            <param key="origId" value="502199947"/>
        </lane>
    </edge>
    <edge id="gneE13" from="gneJ43" to="gneJ29" priority="-1" shape="715.21,607.83 733.04,646.21 776.94,728.82">
        <lane id="gneE13_0" index="0" allow="pedestrian" speed="13.89" length="126.23" width="2.00" shape="728.26,606.02 744.32,640.60 785.51,718.09"/>
        <lane id="gneE13_1" index="1" allow="bicycle" speed="13.89" length="126.23" width="2.00" shape="726.45,606.86 742.53,641.49 783.76,719.06"/>
        <lane id="gneE13_2" index="2" allow="private emergency authority army vip passenger hov taxi bus coach delivery truck trailer motorcycle evehicle" speed="13.89" length="126.23" shape="724.09,607.96 740.21,642.65 781.48,720.31"/>
        <lane id="gneE13_3" index="3" allow="private emergency authority army vip passenger hov taxi bus coach delivery truck trailer motorcycle evehicle" speed="13.89" length="126.23" shape="721.19,609.31 737.34,644.07 778.67,721.85"/>
        <lane id="gneE13_4" index="4" allow="private emergency authority army vip passenger hov taxi bus coach delivery truck trailer motorcycle evehicle" speed="13.89" length="126.23" shape="718.29,610.66 734.47,645.50 775.87,723.39"/>
    </edge>
    <edge id="gneE14" from="119130692" to="gneJ43" priority="-1" shape="315.40,209.41 378.25,237.00 398.50,247.95 464.87,290.77 539.74,355.69 591.87,413.45 633.69,464.88 675.63,531.62 715.21,607.83">
        <lane id="gneE14_0" index="0" allow="bicycle" speed="13.89" length="577.85" width="2.00" shape="318.37,202.63 381.50,230.35 402.27,241.58 469.32,284.84 544.93,350.40 597.49,408.63 639.72,460.56 682.06,527.94 720.03,601.05"/>
        <lane id="gneE14_1" index="1" allow="private emergency authority army vip passenger hov taxi bus coach delivery truck trailer motorcycle evehicle" speed="13.89" length="577.85" shape="317.33,205.01 380.36,232.68 400.95,243.82 467.76,286.92 543.11,352.26 595.52,410.33 637.60,462.08 679.80,529.23 717.72,602.24"/>
        <lane id="gneE14_2" index="2" allow="private emergency authority army vip passenger hov taxi bus coach delivery truck trailer motorcycle evehicle" speed="13.89" length="577.85" shape="316.04,207.94 378.95,235.56 399.32,246.57 465.83,289.49 540.86,354.55 593.09,412.41 634.99,463.95 677.02,530.82 714.88,603.72"/>
    </edge>
    <edge id="gneE15" from="gneJ29" to="119130692" priority="-1" shape="776.94,728.82 731.71,646.54 713.14,606.02 673.95,532.58 631.29,466.44 590.59,414.11 538.75,356.25 464.17,291.79 397.22,250.44 377.53,239.40 315.40,209.41">
        <lane id="gneE15_0" index="0" allow="private emergency authority army vip passenger hov taxi bus coach delivery truck trailer motorcycle evehicle custom1 custom2" speed="13.89" length="705.97" shape="770.19,726.51 727.42,648.70 708.84,608.15 669.81,535.01 627.37,469.22 586.90,417.19 535.38,359.68 461.32,295.67 394.78,254.58 375.31,243.66 313.31,213.73"/>
        <lane id="gneE15_1" index="1" allow="private emergency authority army vip passenger hov taxi bus coach delivery truck trailer motorcycle evehicle custom1 custom2" speed="13.89" length="705.97" shape="773.00,724.97 730.28,647.26 711.71,606.73 672.57,533.39 629.98,467.37 589.36,415.14 537.63,357.39 463.22,293.08 396.41,251.82 376.79,240.82 314.70,210.85"/>
    </edge>
    <edge id="gneE16" from="gneJ41" to="gneJ29" priority="-1">
        <lane id="gneE16_0" index="0" allow="private emergency authority army vip passenger hov taxi bus coach delivery truck trailer motorcycle evehicle custom1 custom2" speed="22.22" length="119.95" shape="823.49,847.96 772.91,739.13"/>
        <lane id="gneE16_1" index="1" allow="private emergency authority army vip passenger hov taxi bus coach delivery truck trailer motorcycle evehicle custom1 custom2" speed="22.22" length="119.95" shape="826.40,846.61 775.84,737.84"/>
        <lane id="gneE16_2" index="2" allow="private emergency authority army vip passenger hov taxi bus coach delivery truck trailer motorcycle evehicle custom1 custom2" speed="22.22" length="119.95" shape="829.30,845.26 778.76,736.54"/>
    </edge>
    <edge id="gneE19" from="211461502" to="gneJ41" priority="-1">
        <lane id="gneE19_0" index="0" allow="private emergency authority army vip passenger hov taxi bus coach delivery truck trailer motorcycle evehicle custom1 custom2" speed="22.22" length="692.72" shape="1132.94,1476.71 829.83,853.83"/>
        <lane id="gneE19_1" index="1" allow="private emergency authority army vip passenger hov taxi bus coach delivery truck trailer motorcycle evehicle custom1 custom2" speed="22.22" length="692.72" shape="1135.82,1475.31 832.71,852.43"/>
    </edge>
    <edge id="gneE4" from="gneJ29" to="4927571695" priority="-1">
        <lane id="gneE4_0" index="0" allow="bicycle" speed="13.89" length="105.71" width="2.00" shape="788.88,719.12 882.37,669.76"/>
        <lane id="gneE4_1" index="1" allow="private emergency authority army vip passenger hov taxi bus coach delivery truck trailer motorcycle evehicle" speed="13.89" length="105.71" width="2.00" shape="789.82,720.89 883.28,671.54"/>
    </edge>
    <edge id="gneE6" from="gneJ29" to="211461502" priority="-1" shape="776.94,728.82 798.42,777.30 1137.26,1474.61">
        <lane id="gneE6_0" index="0" allow="pedestrian" speed="13.89" length="820.30" width="2.00" shape="788.69,732.14 806.95,773.34 1145.71,1470.50"/>
        <lane id="gneE6_1" index="1" allow="bicycle" speed="13.89" length="820.30" width="2.00" shape="786.86,732.95 805.13,774.18 1143.92,1471.38"/>
        <lane id="gneE6_2" index="2" allow="private emergency authority army vip passenger hov taxi bus coach delivery truck trailer motorcycle evehicle" speed="13.89" length="820.30" shape="784.49,734.00 802.77,775.28 1141.58,1472.51"/>
        <lane id="gneE6_3" index="3" allow="private emergency authority army vip passenger hov taxi bus coach delivery truck trailer motorcycle evehicle" speed="13.89" length="820.30" shape="781.56,735.30 799.87,776.63 1138.70,1473.91"/>
    </edge>

    <tlLogic id="gneJ29" type="static" programID="0" offset="0">
        <phase duration="2"  state="uurrrrrrruuuuurrr"/>
        <phase duration="38" state="ggrrrrrrrgggggrgg"/>
        <phase duration="4"  state="yyrrrrrrryyyyyrrr"/>
        <phase duration="2"  state="rrrrrrrrrrrrrrrrr"/>
        <phase duration="2"  state="rrruuuuuurrrrrurr"/>
        <phase duration="18" state="rrrggggggrrrrrgrr"/>
        <phase duration="4"  state="rrryyyyyyrrrrryrr"/>
        <phase duration="2"  state="rrrrrrrrrrrrrrrrr"/>
        <phase duration="2"  state="uuurrrrrrrrrrrrrr"/>
        <phase duration="8"  state="gggrrrrrrrrrrrrrr"/>
        <phase duration="4"  state="yyyrrrrrrrrrrrrrr"/>
        <phase duration="2"  state="rrrrrrrrrrrrrrrrr"/>
    </tlLogic>

    <junction id="119130692" type="dead_end" x="315.40" y="209.41" incLanes="gneE15_0 gneE15_1" intLanes="" shape="315.40,209.41 318.78,201.72 312.62,215.17"/>
    <junction id="211461502" type="dead_end" x="1137.26" y="1474.61" incLanes="gneE6_0 gneE6_1 gneE6_2 gneE6_3" intLanes="" shape="1137.26,1474.61 1131.51,1477.41 1146.61,1470.06"/>
    <junction id="413544452" type="dead_end" x="686.45" y="768.27" incLanes="-24095610_0" intLanes="" shape="686.45,768.27 686.85,769.19 686.45,768.27"/>
    <junction id="4927571695" type="priority" x="887.30" y="670.55" incLanes="-502199947#0_0 gneE4_0 gneE4_1" intLanes=":4927571695_0_0 :4927571695_0_1 :4927571695_2_0 :4927571695_2_1" shape="892.25,671.29 888.45,664.25 885.98,665.87 885.19,666.57 884.40,667.26 883.38,668.01 881.91,668.87 887.56,679.91 889.13,678.66 889.76,677.20 889.93,675.63 890.09,674.06 890.71,672.58">
        <request index="0" response="0000" foes="0000" cont="0"/>
        <request index="1" response="0000" foes="0000" cont="0"/>
        <request index="2" response="0000" foes="0000" cont="0"/>
        <request index="3" response="0000" foes="0000" cont="0"/>
    </junction>
    <junction id="529392674" type="dead_end" x="1023.81" y="596.89" incLanes="502199947#0_0 502199947#0_1" intLanes="" shape="1023.81,596.89 1021.44,592.49 1023.81,596.89"/>
    <junction id="gneJ29" type="traffic_light" x="776.94" y="728.82" incLanes="gneE16_0 gneE16_1 gneE16_2 35279828_0 35279828_1 gneE13_0 gneE13_1 gneE13_2 gneE13_3 gneE13_4 24095610_0 :gneJ29_w0_0" intLanes=":gneJ29_0_0 :gneJ29_0_1 :gneJ29_2_0 :gneJ29_15_0 :gneJ29_16_0 :gneJ29_17_0 :gneJ29_6_0 :gneJ29_18_0 :gneJ29_19_0 :gneJ29_9_0 :gneJ29_10_0 :gneJ29_11_0 :gneJ29_12_0 :gneJ29_12_1 :gneJ29_14_0 :gneJ29_c0_0" shape="771.45,739.78 789.61,731.74 789.78,730.71 790.30,730.12 791.10,729.48 792.20,728.77 793.58,728.02 788.42,718.24 787.60,718.48 787.25,718.43 786.92,718.27 786.64,718.00 786.39,717.61 768.79,727.28 769.31,729.28 769.08,730.16 768.51,730.96 767.61,731.68 766.38,732.33 767.18,734.16 768.27,734.52 768.94,735.27 769.69,736.39 770.53,737.90">
        <request index="0"  response="0100000111000000" foes="0100000111000000" cont="0"/>
        <request index="1"  response="0100000111000000" foes="0100000111000000" cont="0"/>
        <request index="2"  response="0011110111000000" foes="0011110111000000" cont="0"/>
        <request index="3"  response="1000000000000000" foes="1000010000000000" cont="1"/>
        <request index="4"  response="1000000000000000" foes="1011010000000000" cont="1"/>
        <request index="5"  response="1000000000000000" foes="1011010000000000" cont="1"/>
        <request index="6"  response="0000000000000000" foes="0011010000000111" cont="0"/>
        <request index="7"  response="0100000000000000" foes="0111010000000111" cont="1"/>
        <request index="8"  response="0100000000000000" foes="0111010000000111" cont="1"/>
        <request index="9"  response="1100000000000000" foes="1100000000000000" cont="0"/>
        <request index="10" response="1100000111111000" foes="1100100111111100" cont="0"/>
        <request index="11" response="1100010000000000" foes="1100010000000100" cont="0"/>
        <request index="12" response="1100000111110000" foes="1100000111110100" cont="0"/>
        <request index="13" response="1100000111110000" foes="1100000111110100" cont="0"/>
        <request index="14" response="0000000000000000" foes="0011111110000011" cont="0"/>
        <request index="15" response="0000000000000000" foes="0011111000111000" cont="0"/>
    </junction>
    <junction id="gneJ41" type="priority" x="832.42" y="848.18" incLanes="gneE19_0 gneE19_1" intLanes=":gneJ41_0_0 :gneJ41_0_1 :gneJ41_0_2" shape="828.39,854.53 834.15,851.73 830.75,844.59 822.04,848.63 824.08,851.04 825.19,851.59 826.31,852.14 827.39,853.01">
        <request index="0" response="000" foes="000" cont="0"/>
        <request index="1" response="000" foes="000" cont="0"/>
        <request index="2" response="000" foes="000" cont="0"/>
    </junction>
    <junction id="gneJ43" type="priority" x="715.21" y="607.83" incLanes="gneE14_0 gneE14_1 gneE14_2" intLanes=":gneJ43_0_0 :gneJ43_0_1 :gneJ43_0_2 :gneJ43_0_3" shape="716.84,611.33 729.17,605.60 726.62,603.31 725.11,603.06 723.59,602.82 722.16,602.14 720.91,600.58 713.46,604.46">
        <request index="0" response="0000" foes="0000" cont="0"/>
        <request index="1" response="0000" foes="0000" cont="0"/>
        <request index="2" response="0000" foes="0000" cont="0"/>
        <request index="3" response="0000" foes="0000" cont="0"/>
    </junction>

    <junction id=":gneJ29_15_0" type="internal" x="788.86" y="729.75" incLanes=":gneJ29_3_0" intLanes=":gneJ29_10_0 :gneJ29_12_0 :gneJ29_12_1 :gneJ29_c0_0"/>
    <junction id=":gneJ29_16_0" type="internal" x="788.80" y="728.97" incLanes=":gneJ29_4_0" intLanes=":gneJ29_10_0 :gneJ29_12_0 :gneJ29_12_1 :gneJ29_c0_0"/>