<?xml version="1.0" encoding="UTF-8"?>

<!-- generated on Fri 01 May 2020 04:38:51 PM PDT by Eclipse sumo netedit Version 1.2.0
<configuration xmlns:xsi="http://www.w3.org/2001/XMLSchema-instance" xsi:noNamespaceSchemaLocation="http://sumo.dlr.de/xsd/netconvertConfiguration.xsd">

    <input>
        <sumo-net-file value="/mnt/c/Users/Garey/Desktop/Ubuntu%20Directory/siren/siren/sumo/intersections/aarhus_intersection/osm.net.xml"/>
    </input>

    <output>
        <output-file value="/mnt/c/Users/Garey/Desktop/Ubuntu%20Directory/siren/siren/sumo/intersections/aarhus_intersection/osm.net.xml"/>
        <output.street-names value="true"/>
    </output>

    <processing>
        <geometry.max-grade.fix value="false"/>
        <offset.disable-normalization value="true"/>
        <lefthand value="false"/>
    </processing>

    <junctions>
        <no-internal-links value="false"/>
        <no-turnarounds value="true"/>
        <junctions.corner-detail value="5"/>
        <junctions.limit-turn-speed value="5.5"/>
        <rectangular-lane-cut value="false"/>
    </junctions>

    <pedestrian>
        <walkingareas value="true"/>
    </pedestrian>

    <netedit>
        <route-files value="/mnt/c/Users/Garey/Desktop/Ubuntu%20Directory/siren/siren/sumo/intersections/aarhus_intersection/osm.rou"/>
    </netedit>

</configuration>
-->

<routes xmlns:xsi="http://www.w3.org/2001/XMLSchema-instance" xsi:noNamespaceSchemaLocation="http://sumo.dlr.de/xsd/routes_file.xsd">
    <!-- Routes are in same order as the traffic signals -->
    <route id="a1_straight" edges="gneE19 gneE16 gneE15"/>
        <flow id="a1_straight_v"  route="a1_straight" type="DEFAULT_VEHTYPE"  vehsPerHour="900"/>
    <route id="a1_left" edges="gneE19 gneE16 gneE4"/>
        <flow id="a1_left_v"  route="a1_left" type="DEFAULT_VEHTYPE"  vehsPerHour="180"/>
    <route id="b_right" edges="-502199947#0 35279828 gneE6"/>
        <flow id="b_right_v"  route="b_right" type="DEFAULT_VEHTYPE"  vehsPerHour="60"/>
        <flow id="b_right_b"  route="b_right" type="DEFAULT_BIKETYPE"  vehsPerHour="15"/>
    <route id="b_left" edges="-502199947#0 35279828 gneE15"/>
        <flow id="b_left_v"  route="b_left" type="DEFAULT_VEHTYPE"  vehsPerHour="180"/>
    <route id="a2_right" edges="gneE14 gneE13 gneE4 502199947#0"/>
        <flow id="a2_right_v"  route="a2_right" type="DEFAULT_VEHTYPE"  vehsPerHour="180"/>
        <flow id="a2_right_b"  route="a2_right" type="DEFAULT_BIKETYPE"  vehsPerHour="10"/>
    <route id="a2_straight" edges="gneE14 gneE13 gneE6"/>
        <flow id="a2_straight_v"  route="a2_straight" type="DEFAULT_VEHTYPE"  vehsPerHour="900"/>
        <flow id="a2_straight_b"  route="a2_straight" type="DEFAULT_BIKETYPE"  vehsPerHour="5"/>
    <route id="bike_straight" edges="24095610 gneE4 502199947#0"/>
        <flow id="bike_straight_b"  route="bike_straight" type="DEFAULT_BIKETYPE"  vehsPerHour="15"/>
    <!-- <route id="route_8" edges="gneE13 gneE6"/>
        <flow id="flow_8_b"  route="route_8" type="DEFAULT_PEDTYPE"  vehsPerHour="360"/> -->


    <personFlow id="crossWalk" begin="0" personsPerHour="15">
        <walk from="gneE13" to="gneE6"/>
    </personFlow>
</routes>
<!-- <personFlow id="person" begin="gneE13" end="gneE6" period="2">
       <walk from="beg" to="end" />
</personFlow> -->
