<?xml version="1.0" encoding="UTF-8"?>

<!-- generated on Wed 06 May 2020 06:24:15 PM PDT by Eclipse SUMO netedit Version 1.5.0
<configuration xmlns:xsi="http://www.w3.org/2001/XMLSchema-instance" xsi:noNamespaceSchemaLocation="http://sumo.dlr.de/xsd/netconvertConfiguration.xsd">

    <input>
        <sumo-net-file value="/home/zinoex/Documents/siren/siren/sumo/intersections/aarhus_intersection/osm.net.xml"/>
    </input>

    <output>
        <output-file value="/home/zinoex/Documents/siren/siren/sumo/intersections/aarhus_intersection/osm.net.xml"/>
        <output.street-names value="true"/>
    </output>

    <processing>
        <geometry.min-radius.fix.railways value="false"/>
        <geometry.max-grade.fix value="false"/>
        <offset.disable-normalization value="true"/>
        <lefthand value="false"/>
    </processing>

    <junctions>
        <no-internal-links value="false"/>
        <no-turnarounds value="true"/>
        <junctions.corner-detail value="5"/>
        <junctions.limit-turn-speed value="5.5"/>
        <rectangular-lane-cut value="false"/>
    </junctions>

    <pedestrian>
        <walkingareas value="true"/>
    </pedestrian>

    <netedit>
        <route-files value="/home/zinoex/Documents/siren/siren/sumo/intersections/aarhus_intersection/osm.prob.rou.xml"/>
    </netedit>

    <report>
        <aggregate-warnings value="5"/>
    </report>

</configuration>
-->

<routes xmlns:xsi="http://www.w3.org/2001/XMLSchema-instance" xsi:noNamespaceSchemaLocation="http://sumo.dlr.de/xsd/routes_file.xsd">
    <route edges="gneE19 gneE16 gneE4" color="yellow" id="a1_left"/>
    <route edges="gneE19 gneE16 gneE15" color="yellow" id="a1_straight"/>
    <route edges="gneE14 gneE13 gneE4 502199947#0" color="yellow" id="a2_right"/>
    <route edges="gneE14 gneE13 gneE6" color="yellow" id="a2_straight"/>
    <route edges="-502199947#0 35279828 gneE15" color="yellow" id="b_left"/>
    <route edges="-502199947#0 35279828 gneE6" color="yellow" id="b_right"/>
    <route edges="24095610 gneE4 502199947#0" color="yellow" id="bike_straight"/>
    <flow id="a1_left_v" begin="0.00" departLane="allowed" departSpeed="speedLimit" route="a1_left" end="864000.00" probability="0.02801"/>
    <flow id="a1_straight_v" begin="0.00" departLane="allowed" departSpeed="speedLimit" route="a1_straight" end="864000.00" probability="0.18637"/>
    <flow id="a2_right_b" type="DEFAULT_BIKETYPE" begin="0.00" departLane="allowed" route="a2_right" end="864000.00" probability="0.005"/>
    <flow id="a2_right_v" begin="0.00" departLane="allowed" departSpeed="speedLimit" route="a2_right" end="864000.00" probability="0.057828"/>
    <flow id="a2_straight_b" type="DEFAULT_BIKETYPE" begin="0.00" departLane="allowed" route="a2_straight" end="864000.00" probability="0.005"/>
    <flow id="a2_straight_v" begin="0.00" departLane="allowed" departSpeed="speedLimit" route="a2_straight" end="864000.00" probability="0.12171"/>
    <flow id="b_left_v" begin="0.00" departLane="allowed" departSpeed="speedLimit" route="b_left" end="86400.00" probability="0.07493"/>
    <flow id="b_right_b" type="DEFAULT_BIKETYPE" begin="0.00" departLane="allowed" route="b_right" end="864000.00" probability="0.005"/>
    <flow id="b_right_v" begin="0.00" departLane="allowed" departSpeed="speedLimit" route="b_right" end="864000.00" probability="0.03115"/>
    <flow id="bike_straight_b" type="DEFAULT_BIKETYPE" begin="0.00" departLane="allowed" route="bike_straight" end="864000.00" probability="0.005"/>
    <personFlow id="personFlow_1" begin="0.00" end="86400.00" probability="0.01">
        <personTrip from="gneE13" to="gneE6"/>
    </personFlow>
</routes>
