<?xml version="1.0" encoding="UTF-8"?>

<!-- generated on Fri 01 May 2020 08:37:31 PM PDT by Eclipse SUMO netedit Version 1.2.0
<configuration xmlns:xsi="http://www.w3.org/2001/XMLSchema-instance" xsi:noNamespaceSchemaLocation="http://sumo.dlr.de/xsd/netconvertConfiguration.xsd">

    <input>
        <sumo-net-file value="/mnt/c/Users/Garey/Desktop/Ubuntu%20Directory/siren/siren/SUMO/intersections/aarhus_intersection/osm.net.xml"/>
    </input>

    <output>
        <output-file value="/mnt/c/Users/Garey/Desktop/Ubuntu%20Directory/siren/siren/SUMO/intersections/aarhus_intersection/osm.net.xml"/>
        <output.street-names value="true"/>
    </output>

    <processing>
        <geometry.max-grade.fix value="false"/>
        <offset.disable-normalization value="true"/>
        <lefthand value="false"/>
    </processing>

    <junctions>
        <no-internal-links value="false"/>
        <no-turnarounds value="true"/>
        <junctions.corner-detail value="5"/>
        <junctions.limit-turn-speed value="5.5"/>
        <rectangular-lane-cut value="false"/>
    </junctions>

    <pedestrian>
        <walkingareas value="true"/>
    </pedestrian>

</configuration>
-->

<net version="1.1" junctionCornerDetail="5" walkingareas="true" limitTurnSpeed="5.50" xmlns:xsi="http://www.w3.org/2001/XMLSchema-instance" xsi:noNamespaceSchemaLocation="http://sumo.dlr.de/xsd/net_file.xsd">

    <location netOffset="-578523.66,-6229762.86" convBoundary="315.40,209.41,1137.26,1474.61" origBoundary="10.266177,56.206223,10.300594,56.245021" projParameter="+proj=utm +zone=32 +ellps=WGS84 +datum=WGS84 +units=m +no_defs"/>

    <type id="cycleway.lane" allow="bicycle" bikeLaneWidth="1.00"/>
    <type id="cycleway.opposite_lane" allow="bicycle" bikeLaneWidth="1.00"/>
    <type id="cycleway.opposite_track" allow="bicycle" bikeLaneWidth="1.50"/>
    <type id="cycleway.track" allow="bicycle" bikeLaneWidth="1.50"/>
    <type id="cycleway.track|highway.secondary" priority="11" numLanes="1" speed="13.89" disallow="tram rail_urban rail rail_electric pedestrian ship" oneway="0" sidewalkWidth="3.00" bikeLaneWidth="1.50"/>
    <type id="highway.bridleway" priority="1" numLanes="1" speed="2.78" allow="pedestrian" oneway="1" width="2.00"/>
    <type id="highway.bus_guideway" priority="1" numLanes="1" speed="13.89" allow="bus" oneway="1"/>
    <type id="highway.cycleway" priority="1" numLanes="1" speed="8.33" allow="bicycle" oneway="0" width="1.00"/>
    <type id="highway.footway" priority="1" numLanes="1" speed="2.78" allow="pedestrian" oneway="1" width="2.00"/>
    <type id="highway.ford" priority="1" numLanes="1" speed="2.78" allow="army" oneway="0"/>
    <type id="highway.living_street" priority="2" numLanes="1" speed="2.78" disallow="tram rail_urban rail rail_electric ship" oneway="0"/>
    <type id="highway.motorway" priority="14" numLanes="2" speed="27.78" allow="private emergency authority army vip passenger hov taxi bus coach delivery truck trailer motorcycle evehicle custom1 custom2" oneway="1"/>
    <type id="highway.motorway_link" priority="9" numLanes="1" speed="16.67" allow="private emergency authority army vip passenger hov taxi bus coach delivery truck trailer motorcycle evehicle custom1 custom2" oneway="1"/>
    <type id="highway.path" priority="1" numLanes="1" speed="2.78" allow="bicycle pedestrian" oneway="1" width="2.00"/>
    <type id="highway.pedestrian" priority="1" numLanes="1" speed="2.78" allow="pedestrian" oneway="1" width="2.00"/>
    <type id="highway.primary" priority="12" numLanes="2" speed="13.89" disallow="tram rail_urban rail rail_electric pedestrian ship" oneway="0" sidewalkWidth="3.00"/>
    <type id="highway.primary_link" priority="7" numLanes="1" speed="13.89" disallow="tram rail_urban rail rail_electric pedestrian ship" oneway="0" sidewalkWidth="3.00"/>
    <type id="highway.raceway" priority="15" numLanes="2" speed="83.33" allow="vip" oneway="0"/>
    <type id="highway.residential" priority="3" numLanes="1" speed="13.89" disallow="tram rail_urban rail rail_electric pedestrian ship" oneway="0" sidewalkWidth="2.00"/>
    <type id="highway.secondary" priority="11" numLanes="1" speed="13.89" disallow="tram rail_urban rail rail_electric pedestrian ship" oneway="0" sidewalkWidth="3.00"/>
    <type id="highway.secondary_link" priority="6" numLanes="1" speed="13.89" disallow="tram rail_urban rail rail_electric pedestrian ship" oneway="0" sidewalkWidth="3.00"/>
    <type id="highway.service" priority="1" numLanes="1" speed="5.56" allow="delivery bicycle pedestrian" oneway="0"/>
    <type id="highway.stairs" priority="1" numLanes="1" speed="1.39" allow="pedestrian" oneway="1" width="2.00"/>
    <type id="highway.step" priority="1" numLanes="1" speed="1.39" allow="pedestrian" oneway="1" width="2.00"/>
    <type id="highway.steps" priority="1" numLanes="1" speed="1.39" allow="pedestrian" oneway="1" width="2.00"/>
    <type id="highway.tertiary" priority="10" numLanes="1" speed="13.89" disallow="tram rail_urban rail rail_electric pedestrian ship" oneway="0" sidewalkWidth="3.00"/>
    <type id="highway.tertiary_link" priority="5" numLanes="1" speed="13.89" disallow="tram rail_urban rail rail_electric pedestrian ship" oneway="0" sidewalkWidth="2.00"/>
    <type id="highway.track" priority="1" numLanes="1" speed="5.56" disallow="tram rail_urban rail rail_electric ship" oneway="0"/>
    <type id="highway.trunk" priority="13" numLanes="2" speed="13.89" disallow="tram rail_urban rail rail_electric bicycle pedestrian ship" oneway="0"/>
    <type id="highway.trunk_link" priority="8" numLanes="1" speed="13.89" disallow="tram rail_urban rail rail_electric bicycle pedestrian ship" oneway="0"/>
    <type id="highway.unclassified" priority="4" numLanes="1" speed="13.89" disallow="tram rail_urban rail rail_electric pedestrian ship" oneway="0" sidewalkWidth="2.00"/>
    <type id="highway.unsurfaced" priority="1" numLanes="1" speed="8.33" disallow="tram rail_urban rail rail_electric ship" oneway="0"/>
    <type id="railway.highspeed" priority="21" numLanes="1" speed="69.44" allow="rail_electric" oneway="1"/>
    <type id="railway.light_rail" priority="19" numLanes="1" speed="27.78" allow="rail_urban" oneway="1"/>
    <type id="railway.preserved" priority="16" numLanes="1" speed="27.78" allow="rail" oneway="1"/>
    <type id="railway.rail" priority="20" numLanes="1" speed="44.44" allow="rail" oneway="1"/>
    <type id="railway.subway" priority="18" numLanes="1" speed="27.78" allow="rail_urban" oneway="1"/>
    <type id="railway.tram" priority="17" numLanes="1" speed="13.89" allow="tram" oneway="1"/>

    <edge id=":413544452_0" function="internal">
        <lane id=":413544452_0_0" index="0" allow="bicycle" speed="2.04" length="1.46" width="1.00" shape="686.65,768.73 686.21,768.65 685.99,768.47 686.01,768.19 686.25,767.81"/>
    </edge>
    <edge id=":4927571695_0" function="internal">
        <lane id=":4927571695_0_0" index="0" allow="private emergency authority army vip passenger hov taxi bus coach delivery truck trailer motorcycle moped bicycle evehicle" speed="18.05" length="9.27" width="3.00" shape="843.29,693.26 841.36,695.18 841.01,697.47 840.66,699.78 838.77,701.76"/>
        <lane id=":4927571695_0_1" index="1" allow="private emergency authority army vip passenger hov taxi bus coach delivery truck trailer motorcycle moped bicycle evehicle" speed="18.05" length="9.27" shape="843.29,693.26 841.30,694.67 840.27,696.11 839.26,697.56 837.30,699.03"/>
    </edge>
    <edge id=":4927571695_2" function="internal">
        <lane id=":4927571695_2_0" index="0" allow="private emergency authority army vip passenger hov taxi bus coach delivery truck trailer motorcycle moped bicycle evehicle" speed="13.89" length="8.10" width="3.00" shape="835.04,694.83 841.93,690.58"/>
    </edge>
    <edge id=":529392674_0" function="internal">
        <lane id=":529392674_0_0" index="0" allow="private emergency authority army vip passenger hov taxi bus coach delivery truck trailer motorcycle moped bicycle evehicle" speed="3.53" length="4.38" width="3.00" shape="957.40,632.27 958.75,632.43 959.42,632.93 959.42,633.77 958.76,634.95"/>
    </edge>
    <edge id=":gneJ29_0" function="internal">
        <lane id=":gneJ29_0_0" index="0" allow="private emergency authority army vip passenger hov taxi bus coach delivery truck trailer motorcycle evehicle custom1 custom2" speed="13.89" length="14.62" shape="772.77,739.79 771.65,735.68 771.56,732.64 771.32,729.66 769.78,725.75"/>
        <lane id=":gneJ29_0_1" index="1" allow="private emergency authority army vip passenger hov taxi bus coach delivery truck trailer motorcycle evehicle custom1 custom2" speed="13.89" length="14.62" shape="775.70,738.49 774.54,734.31 774.43,731.22 774.17,728.19 772.58,724.21"/>
    </edge>
    <edge id=":gneJ29_2" function="internal">
        <lane id=":gneJ29_2_0" index="0" allow="private emergency authority army vip passenger hov taxi bus coach delivery truck trailer motorcycle moped bicycle evehicle" speed="10.00" length="5.19" width="2.00" shape="778.63,737.19 777.94,733.00 778.24,732.12"/>
    </edge>
    <edge id=":gneJ29_16" function="internal">
        <lane id=":gneJ29_16_0" index="0" allow="private emergency authority army vip passenger hov taxi bus coach delivery truck trailer motorcycle moped bicycle evehicle" speed="10.00" length="15.35" width="2.00" shape="778.24,732.12 779.33,728.94 782.81,725.01 788.38,721.20"/>
    </edge>
    <edge id=":gneJ29_3" function="internal">
        <lane id=":gneJ29_3_0" index="0" allow="bicycle" speed="6.41" length="8.29" width="2.00" shape="791.94,727.52 789.37,729.11 787.71,730.63 786.94,732.08 787.08,733.45"/>
    </edge>
    <edge id=":gneJ29_4" function="internal">
        <lane id=":gneJ29_4_0" index="0" allow="private emergency authority army vip passenger hov taxi bus coach delivery truck trailer motorcycle moped bicycle evehicle" speed="7.25" length="10.87" shape="791.70,727.08 788.15,729.22 785.80,731.17 784.65,732.93 784.71,734.50"/>
    </edge>
    <edge id=":gneJ29_5" function="internal">
        <lane id=":gneJ29_5_0" index="0" allow="private emergency authority army vip passenger hov taxi bus coach delivery truck trailer motorcycle moped bicycle evehicle" speed="8.10" length="13.76" shape="791.70,727.08 786.91,729.87 783.66,732.26 781.95,734.23 781.78,735.80"/>
    </edge>
    <edge id=":gneJ29_6" function="internal">
        <lane id=":gneJ29_6_0" index="0" allow="bicycle" speed="15.27" length="26.48" width="1.00" shape="792.18,727.97 785.09,730.61 777.75,731.97 771.19,732.82 766.48,733.92"/>
    </edge>
    <edge id=":gneJ29_7" function="internal">
        <lane id=":gneJ29_7_0" index="0" allow="private emergency authority army vip passenger hov taxi bus coach delivery truck trailer motorcycle evehicle custom1 custom2" speed="10.41" length="11.30" shape="791.70,727.08 784.20,730.30 781.09,730.73"/>
    </edge>
    <edge id=":gneJ29_8" function="internal">
        <lane id=":gneJ29_8_0" index="0" allow="private emergency authority army vip passenger hov taxi bus coach delivery truck trailer motorcycle evehicle custom1 custom2" speed="9.34" length="19.57" shape="790.18,724.38 784.01,727.10 779.02,727.97 775.21,727.01 772.58,724.21"/>
    </edge>
    <edge id=":gneJ29_17" function="internal">
        <lane id=":gneJ29_17_0" index="0" allow="private emergency authority army vip passenger hov taxi bus coach delivery truck trailer motorcycle evehicle custom1 custom2" speed="10.41" length="13.31" shape="781.09,730.73 778.04,731.15 773.24,729.64 769.78,725.75"/>
    </edge>
    <edge id=":gneJ29_9" function="internal">
        <lane id=":gneJ29_9_0" index="0" allow="bicycle" speed="4.76" length="4.83" width="2.00" shape="783.35,718.29 784.13,719.36 785.07,719.92 786.16,719.95 787.40,719.46"/>
    </edge>
    <edge id=":gneJ29_10" function="internal">
        <lane id=":gneJ29_10_0" index="0" allow="bicycle" speed="13.89" length="15.73" width="2.00" shape="783.35,718.29 785.03,722.57 785.40,725.78 785.68,729.04 787.08,733.45"/>
    </edge>
    <edge id=":gneJ29_11" function="internal">
        <lane id=":gneJ29_11_0" index="0" allow="private emergency authority army vip passenger hov taxi bus coach delivery truck trailer motorcycle moped bicycle evehicle" speed="6.31" length="2.23" width="2.00" shape="781.07,719.55 782.42,721.32"/>
    </edge>
    <edge id=":gneJ29_12" function="internal">
        <lane id=":gneJ29_12_0" index="0" allow="private emergency authority army vip passenger hov taxi bus coach delivery truck trailer motorcycle moped bicycle evehicle" speed="13.89" length="14.74" shape="778.27,721.09 784.71,734.50"/>
        <lane id=":gneJ29_12_1" index="1" allow="private emergency authority army vip passenger hov taxi bus coach delivery truck trailer motorcycle moped bicycle evehicle" speed="13.89" length="14.74" shape="775.46,722.63 781.78,735.80"/>
    </edge>
    <edge id=":gneJ29_18" function="internal">
        <lane id=":gneJ29_18_0" index="0" allow="private emergency authority army vip passenger hov taxi bus coach delivery truck trailer motorcycle moped bicycle evehicle" speed="6.31" length="6.36" width="2.00" shape="782.42,721.32 784.08,722.19 786.07,722.15 788.38,721.20"/>
    </edge>
    <edge id=":gneJ29_14" function="internal">
        <lane id=":gneJ29_14_0" index="0" allow="bicycle" speed="11.11" length="25.27" width="2.00" shape="766.08,733.01 770.12,730.74 775.19,727.33 781.04,723.37 787.40,719.46"/>
    </edge>
    <edge id=":gneJ29_15" function="internal">
        <lane id=":gneJ29_15_0" index="0" allow="private emergency authority army vip passenger hov taxi bus coach delivery truck trailer motorcycle moped bicycle evehicle" speed="8.77" length="11.78" shape="766.08,733.01 770.62,731.86 775.70,731.82 777.66,732.33"/>
    </edge>
    <edge id=":gneJ29_19" function="internal">
        <lane id=":gneJ29_19_0" index="0" allow="private emergency authority army vip passenger hov taxi bus coach delivery truck trailer motorcycle moped bicycle evehicle" speed="8.77" length="6.13" shape="777.66,732.33 780.15,732.97 782.79,735.35"/>
    </edge>
    <edge id=":gneJ41_0" function="internal">
        <lane id=":gneJ41_0_0" index="0" allow="private emergency authority army vip passenger hov taxi bus coach delivery truck trailer motorcycle evehicle custom1 custom2" speed="13.89" length="8.30" shape="794.58,784.09 793.06,782.09 791.41,781.16 789.80,780.21 788.42,778.15"/>
        <lane id=":gneJ41_0_1" index="1" allow="private emergency authority army vip passenger hov taxi bus coach delivery truck trailer motorcycle evehicle custom1 custom2" speed="13.89" length="8.30" shape="797.46,782.68 795.96,780.74 794.33,779.85 792.74,778.94 791.39,776.94"/>
        <lane id=":gneJ41_0_2" index="2" allow="private emergency authority army vip passenger hov taxi bus coach delivery truck trailer motorcycle evehicle custom1 custom2" speed="13.89" length="8.30" shape="797.46,782.68 794.35,775.73"/>
    </edge>
    <edge id=":gneJ43_0" function="internal">
        <lane id=":gneJ43_0_0" index="0" allow="bicycle" speed="13.89" length="8.17" width="2.00" shape="720.01,601.03 721.61,603.01 723.30,603.91 724.95,604.83 726.45,606.86"/>
        <lane id=":gneJ43_0_1" index="1" allow="private emergency authority army vip passenger hov taxi bus coach delivery truck trailer motorcycle bicycle evehicle" speed="13.89" length="8.17" shape="720.01,601.03 721.29,603.07 722.39,604.34 723.45,605.62 724.64,607.71"/>
        <lane id=":gneJ43_0_2" index="2" allow="private emergency authority army vip passenger hov taxi bus coach delivery truck trailer motorcycle bicycle evehicle" speed="13.89" length="8.17" shape="717.71,602.22 721.19,609.31"/>
        <lane id=":gneJ43_0_3" index="3" allow="private emergency authority army vip passenger hov taxi bus coach delivery truck trailer motorcycle bicycle evehicle" speed="13.89" length="8.17" shape="714.87,603.70 718.29,610.66"/>
    </edge>

    <edge id="-24095610" from="gneJ29" to="413544452" priority="1" type="highway.cycleway">
        <lane id="-24095610_0" index="0" allow="bicycle" speed="8.33" length="87.09" width="1.00" shape="766.48,733.92 686.65,768.73">
            <param key="origId" value="24095610"/>
        </lane>
    </edge>
    <edge id="-502199947#0" from="529392674" to="4927571695" name="Egå Havvej" priority="10">
        <lane id="-502199947#0_0" index="0" allow="private emergency authority army vip passenger hov taxi bus coach delivery truck trailer motorcycle moped bicycle evehicle" speed="13.89" length="129.36" width="3.00" shape="958.76,634.95 843.29,693.26">
            <param key="origId" value="502199947"/>
        </lane>
    </edge>
    <edge id="24095610" from="413544452" to="gneJ29" priority="1" type="highway.cycleway">
        <lane id="24095610_0" index="0" allow="bicycle" speed="8.33" length="87.09" width="1.00" shape="686.25,767.81 766.08,733.01">
            <param key="origId" value="24095610"/>
        </lane>
    </edge>
    <edge id="35279828" from="4927571695" to="gneJ29" name="Egå Havvej" priority="10" type="highway.tertiary" spreadType="center" shape="841.57,698.44 782.85,730.03">
        <lane id="35279828_0" index="0" allow="private emergency authority army vip passenger hov taxi bus coach delivery truck trailer motorcycle moped bicycle evehicle" speed="22.22" length="53.48" width="3.00" shape="838.77,701.76 791.70,727.08">
            <param key="origId" value="35279828"/>
        </lane>
        <lane id="35279828_1" index="1" allow="private emergency authority army vip passenger hov taxi bus coach delivery truck trailer motorcycle moped bicycle evehicle" speed="22.22" length="53.48" shape="837.30,699.03 790.18,724.38">
            <param key="origId" value="35279828"/>
        </lane>
    </edge>
    <edge id="502199947#0" from="4927571695" to="529392674" name="Egå Havvej" priority="10" type="highway.tertiary">
        <lane id="502199947#0_0" index="0" allow="private emergency authority army vip passenger hov taxi bus coach delivery truck trailer motorcycle moped bicycle evehicle" speed="13.89" length="129.36" width="3.00" shape="841.93,690.58 957.40,632.27">
            <param key="origId" value="502199947"/>
        </lane>
    </edge>
    <edge id="gneE13" from="gneJ43" to="gneJ29" priority="-1" shape="715.21,607.83 733.04,646.21 776.94,728.82">
        <lane id="gneE13_0" index="0" allow="bicycle" speed="13.89" length="125.45" width="2.00" shape="726.45,606.86 742.53,641.49 783.35,718.29"/>
        <lane id="gneE13_1" index="1" allow="private emergency authority army vip passenger hov taxi bus coach delivery truck trailer motorcycle bicycle evehicle" speed="13.89" length="125.45" shape="724.09,607.96 740.21,642.65 781.07,719.55"/>
        <lane id="gneE13_2" index="2" allow="private emergency authority army vip passenger hov taxi bus coach delivery truck trailer motorcycle bicycle evehicle" speed="13.89" length="125.45" shape="721.19,609.31 737.34,644.07 778.27,721.09"/>
        <lane id="gneE13_3" index="3" allow="private emergency authority army vip passenger hov taxi bus coach delivery truck trailer motorcycle bicycle evehicle" speed="13.89" length="125.45" shape="718.29,610.66 734.47,645.50 775.46,722.63"/>
    </edge>
    <edge id="gneE14" from="119130692" to="gneJ43" priority="-1" shape="315.40,209.41 378.25,237.00 398.50,247.95 464.87,290.77 539.74,355.69 591.87,413.45 633.69,464.88 675.63,531.62 715.21,607.83">
        <lane id="gneE14_0" index="0" allow="bicycle" speed="13.89" length="577.83" width="2.00" shape="318.37,202.63 381.50,230.35 402.27,241.58 469.32,284.84 544.93,350.40 597.49,408.63 639.72,460.56 682.06,527.94 720.01,601.03"/>
        <lane id="gneE14_1" index="1" allow="private emergency authority army vip passenger hov taxi bus coach delivery truck trailer motorcycle moped evehicle" speed="13.89" length="577.83" shape="317.33,205.01 380.36,232.68 400.95,243.82 467.76,286.92 543.11,352.26 595.52,410.33 637.60,462.08 679.80,529.23 717.71,602.22"/>
        <lane id="gneE14_2" index="2" allow="private emergency authority army vip passenger hov taxi bus coach delivery truck trailer motorcycle moped evehicle" speed="13.89" length="577.83" shape="316.04,207.94 378.95,235.56 399.32,246.57 465.83,289.49 540.86,354.55 593.09,412.41 634.99,463.95 677.02,530.82 714.87,603.70"/>
    </edge>
    <edge id="gneE15" from="gneJ29" to="119130692" priority="-1" shape="776.94,728.82 731.71,646.54 713.14,606.02 673.95,532.58 631.29,466.44 590.59,414.11 538.75,356.25 464.17,291.79 397.22,250.44 377.53,239.40 315.40,209.41">
        <lane id="gneE15_0" index="0" allow="private emergency authority army vip passenger hov taxi bus coach delivery truck trailer motorcycle evehicle custom1 custom2" speed="13.89" length="705.10" shape="769.78,725.75 727.42,648.70 708.84,608.15 669.81,535.01 627.37,469.22 586.90,417.19 535.38,359.68 461.32,295.67 394.78,254.58 375.31,243.66 313.31,213.73"/>
        <lane id="gneE15_1" index="1" allow="private emergency authority army vip passenger hov taxi bus coach delivery truck trailer motorcycle evehicle custom1 custom2" speed="13.89" length="705.10" shape="772.58,724.21 730.28,647.26 711.71,606.73 672.57,533.39 629.98,467.37 589.36,415.14 537.63,357.39 463.22,293.08 396.41,251.82 376.79,240.82 314.70,210.85"/>
    </edge>
    <edge id="gneE16" from="gneJ41" to="gneJ29" priority="-1">
        <lane id="gneE16_0" index="0" allow="private emergency authority army vip passenger hov taxi bus coach delivery truck trailer motorcycle evehicle custom1 custom2" speed="13.89" length="41.53" shape="788.42,778.15 772.77,739.79"/>
        <lane id="gneE16_1" index="1" allow="private emergency authority army vip passenger hov taxi bus coach delivery truck trailer motorcycle evehicle custom1 custom2" speed="13.89" length="41.53" shape="791.39,776.94 775.70,738.49"/>
        <lane id="gneE16_2" index="2" allow="private emergency authority army vip passenger hov taxi bus coach delivery truck trailer motorcycle evehicle custom1 custom2" speed="13.89" length="41.53" shape="794.35,775.73 778.63,737.19"/>
    </edge>
    <edge id="gneE19" from="211461502" to="gneJ41" priority="-1">
        <lane id="gneE19_0" index="0" allow="private emergency authority army vip passenger hov taxi bus coach delivery truck trailer motorcycle evehicle custom1 custom2" speed="13.89" length="770.86" shape="1132.95,1476.72 794.58,784.09"/>
        <lane id="gneE19_1" index="1" allow="private emergency authority army vip passenger hov taxi bus coach delivery truck trailer motorcycle evehicle custom1 custom2" speed="13.89" length="770.86" shape="1135.82,1475.31 797.46,782.68"/>
    </edge>
    <edge id="gneE4" from="gneJ29" to="4927571695" priority="-1">
        <lane id="gneE4_0" index="0" allow="bicycle" speed="13.89" length="53.62" width="2.00" shape="787.40,719.46 834.09,693.07"/>
        <lane id="gneE4_1" index="1" allow="private emergency authority army vip passenger hov taxi bus coach delivery truck trailer motorcycle moped bicycle evehicle" speed="13.89" length="53.62" width="2.00" shape="788.38,721.20 835.04,694.83"/>
    </edge>
    <edge id="gneE6" from="gneJ29" to="211461502" priority="-1" shape="776.94,728.82 798.42,777.30 1137.26,1474.61">
        <lane id="gneE6_0" index="0" allow="bicycle" speed="13.89" length="819.80" width="2.00" shape="787.08,733.45 805.13,774.18 1143.92,1471.38"/>
        <lane id="gneE6_1" index="1" allow="private emergency authority army vip passenger hov taxi bus coach delivery truck trailer motorcycle moped bicycle evehicle" speed="13.89" length="819.80" shape="784.71,734.50 802.77,775.28 1141.58,1472.51"/>
        <lane id="gneE6_2" index="2" allow="private emergency authority army vip passenger hov taxi bus coach delivery truck trailer motorcycle moped bicycle evehicle" speed="13.89" length="819.80" shape="781.78,735.80 799.87,776.63 1138.70,1473.91"/>
    </edge>

    <tlLogic id="gneJ29" type="static" programID="0" offset="0">
        <phase duration="29" state="rrrGGGGrrrrrrrGg"/>
        <phase duration="5"  state="rrryyyyrrrrrrryg"/>
        <phase duration="6"  state="rrrrrrrGGrrrrrrG"/>
        <phase duration="5"  state="rrrrrrryyrrrrrry"/>
        <phase duration="29" state="GGgrrrrrrGGgGGrr"/>
        <phase duration="5"  state="yygrrrrrryyyyyrr"/>
        <phase duration="6"  state="GGGrrrrrrrrrrrrr"/>
        <phase duration="5"  state="yyyrrrrrrrrrrrrr"/>
    </tlLogic>

    <junction id="119130692" type="dead_end" x="315.40" y="209.41" incLanes="gneE15_0 gneE15_1" intLanes="" shape="315.40,209.41 318.78,201.72 312.62,215.17"/>
    <junction id="211461502" type="dead_end" x="1137.26" y="1474.61" incLanes="gneE6_0 gneE6_1 gneE6_2" intLanes="" shape="1137.26,1474.61 1131.51,1477.42 1144.82,1470.94"/>
    <junction id="413544452" type="priority" x="686.45" y="768.27" incLanes="-24095610_0" intLanes=":413544452_0_0" shape="686.45,768.27 686.85,769.19 686.45,768.27">
        <request index="0" response="0" foes="0" cont="0"/>
    </junction>
    <junction id="4927571695" type="priority" x="839.06" y="693.71" incLanes="-502199947#0_0 gneE4_0 gneE4_1" intLanes=":4927571695_0_0 :4927571695_0_1 :4927571695_2_0" shape="843.96,694.59 841.26,689.24 838.45,690.38 837.40,690.65 836.37,690.94 835.17,691.40 833.62,692.19 839.48,703.09 841.57,700.35 841.70,698.80 841.84,697.25 842.44,695.82">
        <request index="0" response="000" foes="000" cont="0"/>
        <request index="1" response="000" foes="000" cont="0"/>
        <request index="2" response="000" foes="000" cont="0"/>
    </junction>
    <junction id="529392674" type="priority" x="958.08" y="633.61" incLanes="502199947#0_0" intLanes=":529392674_0_0" shape="958.08,633.61 956.73,630.93 958.08,633.61">
        <request index="0" response="0" foes="0" cont="0"/>
    </junction>
    <junction id="gneJ29" type="traffic_light" x="776.94" y="728.82" incLanes="gneE16_0 gneE16_1 gneE16_2 35279828_0 35279828_1 gneE13_0 gneE13_1 gneE13_2 gneE13_3 24095610_0" intLanes=":gneJ29_0_0 :gneJ29_0_1 :gneJ29_16_0 :gneJ29_3_0 :gneJ29_4_0 :gneJ29_5_0 :gneJ29_6_0 :gneJ29_17_0 :gneJ29_8_0 :gneJ29_9_0 :gneJ29_10_0 :gneJ29_18_0 :gneJ29_12_0 :gneJ29_12_1 :gneJ29_14_0 :gneJ29_19_0" shape="771.31,740.43 788.00,733.04 788.13,731.71 788.70,730.97 789.61,730.16 790.86,729.30 792.44,728.39 786.91,718.59 785.83,718.94 785.36,718.89 784.94,718.68 784.56,718.32 784.23,717.81 768.37,726.52 769.07,728.96 768.85,730.02 768.24,730.97 767.25,731.82 765.88,732.55 766.68,734.38 768.01,734.70 768.76,735.50 769.55,736.72 770.41,738.36">
        <request index="0"  response="1100000111000000" foes="1100000111000000" cont="0"/>
        <request index="1"  response="1100000111000000" foes="1100000111000000" cont="0"/>
        <request index="2"  response="1011110111000000" foes="1011110111000000" cont="1"/>
        <request index="3"  response="0000000000000000" foes="0000010000000000" cont="0"/>
        <request index="4"  response="0000000000000000" foes="0011010000000000" cont="0"/>
        <request index="5"  response="0000000000000000" foes="1011010000000000" cont="0"/>
        <request index="6"  response="0000000000000100" foes="1011010000000111" cont="0"/>
        <request index="7"  response="0100000000000100" foes="1111010000000111" cont="1"/>
        <request index="8"  response="0100000000000100" foes="0111010000000111" cont="0"/>
        <request index="9"  response="0100000000000000" foes="0100000000000000" cont="0"/>
        <request index="10" response="0100000111111000" foes="0100100111111100" cont="0"/>
        <request index="11" response="0100010000000000" foes="0100010000000100" cont="1"/>
        <request index="12" response="0100000111110000" foes="0100000111110100" cont="0"/>
        <request index="13" response="1100000111110000" foes="1100000111110100" cont="0"/>
        <request index="14" response="0000100010000000" foes="0011111110000011" cont="0"/>
        <request index="15" response="0000000011110100" foes="0011000011110111" cont="1"/>
    </junction>
    <junction id="gneJ41" type="priority" x="797.26" y="778.63" incLanes="gneE19_0 gneE19_1" intLanes=":gneJ41_0_0 :gneJ41_0_1 :gneJ41_0_2" shape="793.15,784.79 798.90,781.98 795.83,775.13 786.94,778.76 788.86,781.24 789.94,781.82 791.06,782.39 792.14,783.27">
        <request index="0" response="000" foes="000" cont="0"/>
        <request index="1" response="000" foes="000" cont="0"/>
        <request index="2" response="000" foes="000" cont="0"/>
    </junction>
    <junction id="gneJ43" type="priority" x="715.21" y="607.83" incLanes="gneE14_0 gneE14_1 gneE14_2" intLanes=":gneJ43_0_0 :gneJ43_0_1 :gneJ43_0_2 :gneJ43_0_3" shape="716.84,611.33 727.36,606.44 725.31,604.02 724.19,603.47 723.06,602.93 721.95,602.07 720.90,600.57 713.45,604.44">
        <request index="0" response="0000" foes="0000" cont="0"/>
        <request index="1" response="0000" foes="0000" cont="0"/>
        <request index="2" response="0000" foes="0000" cont="0"/>
        <request index="3" response="0000" foes="0000" cont="0"/>
    </junction>

    <junction id=":gneJ29_16_0" type="internal" x="778.24" y="732.12" incLanes=":gneJ29_2_0 gneE13_0 gneE13_1 gneE13_2 gneE13_3" intLanes=":gneJ29_6_0 :gneJ29_7_0 :gneJ29_8_0 :gneJ29_9_0 :gneJ29_10_0 :gneJ29_11_0 :gneJ29_12_0 :gneJ29_12_1 :gneJ29_14_0 :gneJ29_15_0"/>
    <junction id=":gneJ29_17_0" type="internal" x="781.09" y="730.73" incLanes=":gneJ29_7_0" intLanes=":gneJ29_0_0 :gneJ29_0_1 :gneJ29_2_0 :gneJ29_10_0 :gneJ29_12_0 :gneJ29_12_1 :gneJ29_14_0 :gneJ29_15_0"/>
    <junction id=":gneJ29_18_0" type="internal" x="782.42" y="721.32" incLanes=":gneJ29_11_0 gneE13_0" intLanes=":gneJ29_2_0 :gneJ29_10_0 :gneJ29_14_0"/>
    <junction id=":gneJ29_19_0" type="internal" x="777.66" y="732.33" incLanes=":gneJ29_15_0 35279828_0" intLanes=":gneJ29_0_0 :gneJ29_0_1 :gneJ29_2_0 :gneJ29_3_0 :gneJ29_4_0 :gneJ29_5_0 :gneJ29_6_0 :gneJ29_10_0 :gneJ29_12_0 :gneJ29_12_1"/>
