<?xml version="1.0" encoding="UTF-8"?>

<!-- generated on Sun 03 May 2020 11:14:28 PM PDT by Eclipse SUMO netedit Version 1.5.0
<configuration xmlns:xsi="http://www.w3.org/2001/XMLSchema-instance" xsi:noNamespaceSchemaLocation="http://sumo.dlr.de/xsd/netconvertConfiguration.xsd">

    <input>
        <sumo-net-file value="/home/zinoex/Documents/siren/siren/sumo/intersections/super_simple_example/road_construction.net.xml"/>
    </input>

    <output>
        <output-file value="/home/zinoex/Documents/siren/siren/sumo/intersections/super_simple_example/road_construction.net.xml"/>
    </output>

    <processing>
        <geometry.min-radius.fix.railways value="false"/>
        <geometry.max-grade.fix value="false"/>
        <offset.disable-normalization value="true"/>
        <lefthand value="false"/>
    </processing>

    <junctions>
        <no-turnarounds value="true"/>
        <junctions.corner-detail value="5"/>
        <junctions.limit-turn-speed value="5.5"/>
        <rectangular-lane-cut value="false"/>
    </junctions>

    <pedestrian>
        <walkingareas value="false"/>
    </pedestrian>

    <netedit>
        <route-files value="/home/zinoex/Documents/siren/siren/sumo/intersections/super_simple_example/road_construction.rou.xml"/>
    </netedit>

    <report>
        <aggregate-warnings value="5"/>
    </report>

</configuration>
-->

<routes xmlns:xsi="http://www.w3.org/2001/XMLSchema-instance" xsi:noNamespaceSchemaLocation="http://sumo.dlr.de/xsd/routes_file.xsd">
    <flow id="flow_0" begin="0.00" from="gneE9" to="gneE10" end="3600.00" vehsPerHour="800.00" type="DEFAULT_VEHTYPE"/>
    <flow id="flow_1" begin="0.00" departSpeed="speedLimit" from="gneE7" to="gneE8" end="3600.00" vehsPerHour="600.00" type="DEFAULT_VEHTYPE"/>
</routes>
