<?xml version="1.0" encoding="UTF-8"?>

<!-- generated on Sun 03 May 2020 03:59:59 PM PDT by Eclipse SUMO netedit Version 1.5.0
<configuration xmlns:xsi="http://www.w3.org/2001/XMLSchema-instance" xsi:noNamespaceSchemaLocation="http://sumo.dlr.de/xsd/netconvertConfiguration.xsd">

    <output>
        <output-file value="/home/zinoex/Documents/siren/siren/sumo/intersections/super_simple_example/road_construction.net.xml"/>
    </output>

    <processing>
        <offset.disable-normalization value="true"/>
    </processing>

    <junctions>
        <no-turnarounds value="true"/>
    </junctions>

    <netedit>
        <route-files value="/home/zinoex/Documents/siren/siren/sumo/intersections/super_simple_example/road_construction.rou.xml"/>
    </netedit>

    <report>
        <aggregate-warnings value="5"/>
    </report>

</configuration>
-->

<routes xmlns:xsi="http://www.w3.org/2001/XMLSchema-instance" xsi:noNamespaceSchemaLocation="http://sumo.dlr.de/xsd/routes_file.xsd">
    <flow id="flow_0" begin="0.00" from="gneE9" to="gneE10" end="3600.00" vehsPerHour="1800.00"/>
    <flow id="flow_1" begin="0.00" from="gneE7" to="gneE8" end="3600.00" vehsPerHour="1800.00"/>
</routes>
