<?xml version="1.0" encoding="UTF-8"?>

<!-- generated on Tue 05 May 2020 07:33:39 PM PDT by Eclipse SUMO netedit Version 1.5.0
<configuration xmlns:xsi="http://www.w3.org/2001/XMLSchema-instance" xsi:noNamespaceSchemaLocation="http://sumo.dlr.de/xsd/netconvertConfiguration.xsd">

    <input>
        <sumo-net-file value="/home/zinoex/Documents/siren/siren/sumo/intersections/simple_example/cross.net.xml"/>
    </input>

    <output>
        <output-file value="/home/zinoex/Documents/siren/siren/sumo/intersections/simple_example/cross.net.xml"/>
    </output>

    <processing>
        <geometry.min-radius.fix.railways value="false"/>
        <geometry.max-grade.fix value="false"/>
        <offset.disable-normalization value="true"/>
        <lefthand value="false"/>
    </processing>

    <junctions>
        <no-turnarounds value="true"/>
        <junctions.corner-detail value="0"/>
        <junctions.limit-turn-speed value="-1"/>
        <rectangular-lane-cut value="false"/>
    </junctions>

    <pedestrian>
        <walkingareas value="false"/>
    </pedestrian>

    <netedit>
        <route-files value="/home/zinoex/Documents/siren/siren/sumo/intersections/simple_example/cross.rou.xml"/>
    </netedit>

    <report>
        <aggregate-warnings value="5"/>
    </report>

</configuration>
-->

<routes xmlns:xsi="http://www.w3.org/2001/XMLSchema-instance" xsi:noNamespaceSchemaLocation="http://sumo.dlr.de/xsd/routes_file.xsd">
    <flow id="east_west" departLane="allowed" departSpeed="speedLimit" begin="0.00" from="2i" to="1o" end="3600.00" number="600" type="DEFAULT_VEHTYPE"/>
    <flow id="north_south" departLane="allowed" departSpeed="speedLimit" begin="0.00" from="4i" to="3o" end="3600.00" number="300" type="DEFAULT_VEHTYPE"/>
    <flow id="south_north" departLane="allowed" departSpeed="speedLimit" begin="0.00" from="3i" to="4o" end="3600.00" number="300" type="DEFAULT_VEHTYPE"/>
    <flow id="west_east" departLane="allowed" departSpeed="speedLimit" begin="0.00" from="1i" to="2o" end="3600.00" number="600" type="DEFAULT_VEHTYPE"/>
</routes>
