<routes>
        <vType id="typeWE" accel="0.8" decel="4.5" sigma="0.5" length="5" minGap="2.5" maxSpeed="16.67" guiShape="passenger"/>
        <vType id="typeNS" accel="0.8" decel="4.5" sigma="0.5" length="7" minGap="3" maxSpeed="25" guiShape="bus"/>

        <route id="right" edges="51o 1i 2o 52i" />
            <flow id="right_flow" route="right" type="typeWE" vehsPerHour="600" />
        <route id="left" edges="52o 2i 1o 51i" />
            <flow id="left_flow" route="left" type="typeWE" vehsPerHour="600" />
        <route id="down" edges="54o 4i 3o 53i" />
            <flow id="down_flow" route="down" type="typeNS" vehsPerHour="600" />
    
</routes>
