<?xml version="1.0" encoding="UTF-8"?>

<!-- generated on Wed 10 Mar 2021 05:48:22 PM CET by Eclipse SUMO netedit Version 1.6.0
<configuration xmlns:xsi="http://www.w3.org/2001/XMLSchema-instance" xsi:noNamespaceSchemaLocation="http://sumo.dlr.de/xsd/netconvertConfiguration.xsd">

    <input>
        <sumo-net-file value="/home/zinoex/Documents/siren/siren/sumo/intersections/simple_example/cross.net.xml"/>
    </input>

    <output>
        <output-file value="/home/zinoex/Documents/siren/siren/sumo/intersections/simple_example/cross.net.xml"/>
    </output>

    <processing>
        <geometry.min-radius.fix.railways value="false"/>
        <geometry.max-grade.fix value="false"/>
        <offset.disable-normalization value="true"/>
        <lefthand value="false"/>
    </processing>

    <junctions>
        <no-turnarounds value="true"/>
        <junctions.corner-detail value="0"/>
        <junctions.limit-turn-speed value="-1"/>
        <rectangular-lane-cut value="false"/>
    </junctions>

    <pedestrian>
        <walkingareas value="false"/>
    </pedestrian>

    <report>
        <aggregate-warnings value="5"/>
    </report>

</configuration>
-->

<net version="1.6" xmlns:xsi="http://www.w3.org/2001/XMLSchema-instance" xsi:noNamespaceSchemaLocation="http://sumo.dlr.de/xsd/net_file.xsd">

    <location netOffset="510.00,510.00" convBoundary="10.00,10.00,1010.00,1010.00" origBoundary="-510.00,-510.00,510.00,510.00" projParameter="!"/>

    <edge id=":0_0" function="internal">
        <lane id=":0_0_0" index="0" speed="13.88" length="14.40" shape="508.40,517.20 508.40,502.80"/>
    </edge>
    <edge id=":0_1" function="internal">
        <lane id=":0_1_0" index="0" speed="13.88" length="14.40" shape="517.20,511.60 502.80,511.60"/>
    </edge>
    <edge id=":0_2" function="internal">
        <lane id=":0_2_0" index="0" speed="13.88" length="14.40" shape="511.60,502.80 511.60,517.20"/>
    </edge>
    <edge id=":0_3" function="internal">
        <lane id=":0_3_0" index="0" speed="13.88" length="14.40" shape="502.80,508.40 517.20,508.40"/>
    </edge>

    <edge id="1i" from="1" to="0" priority="78">
        <lane id="1i_0" index="0" speed="13.88" length="492.80" shape="10.00,508.40 502.80,508.40"/>
    </edge>
    <edge id="1o" from="0" to="1" priority="46">
        <lane id="1o_0" index="0" speed="13.88" length="492.80" shape="502.80,511.60 10.00,511.60"/>
    </edge>
    <edge id="2i" from="2" to="0" priority="78">
        <lane id="2i_0" index="0" speed="13.88" length="492.80" shape="1010.00,511.60 517.20,511.60"/>
    </edge>
    <edge id="2o" from="0" to="2" priority="46">
        <lane id="2o_0" index="0" speed="13.88" length="492.80" shape="517.20,508.40 1010.00,508.40"/>
    </edge>
    <edge id="3i" from="3" to="0" priority="78">
        <lane id="3i_0" index="0" speed="13.88" length="492.80" shape="511.60,10.00 511.60,502.80"/>
    </edge>
    <edge id="3o" from="0" to="3" priority="46">
        <lane id="3o_0" index="0" speed="13.88" length="492.80" shape="508.40,502.80 508.40,10.00"/>
    </edge>
    <edge id="4i" from="4" to="0" priority="78">
        <lane id="4i_0" index="0" speed="13.88" length="492.80" shape="508.40,1010.00 508.40,517.20"/>
    </edge>
    <edge id="4o" from="0" to="4" priority="46">
        <lane id="4o_0" index="0" speed="13.88" length="492.80" shape="511.60,517.20 511.60,1010.00"/>
    </edge>

    <tlLogic id="0" type="static" programID="0" offset="0">
        <phase duration="20" state="GrGr"/>
        <phase duration="4"  state="yryr"/>
        <phase duration="2"  state="rrrr"/>
        <phase duration="40" state="rGrG"/>
        <phase duration="4"  state="ryry"/>
        <phase duration="2"  state="rrrr"/>
    </tlLogic>

    <junction id="0" type="traffic_light" x="510.00" y="510.00" incLanes="4i_0 2i_0 3i_0 1i_0" intLanes=":0_0_0 :0_1_0 :0_2_0 :0_3_0" shape="506.80,517.20 513.20,517.20 517.20,513.20 517.20,506.80 513.20,502.80 506.80,502.80 502.80,506.80 502.80,513.20">
        <request index="0" response="0000" foes="1010" cont="0"/>
        <request index="1" response="0101" foes="0101" cont="0"/>
        <request index="2" response="0000" foes="1010" cont="0"/>
        <request index="3" response="0101" foes="0101" cont="0"/>
    </junction>
    <junction id="1" type="dead_end" x="10.00" y="510.00" incLanes="1o_0" intLanes="" shape="10.00,510.00 10.00,513.20 10.00,510.00"/>
    <junction id="2" type="dead_end" x="1010.00" y="510.00" incLanes="2o_0" intLanes="" shape="1010.00,510.00 1010.00,506.80 1010.00,510.00"/>
    <junction id="3" type="dead_end" x="510.00" y="10.00" incLanes="3o_0" intLanes="" shape="510.00,10.00 506.80,10.00 510.00,10.00"/>
    <junction id="4" type="dead_end" x="510.00" y="1010.00" incLanes="4o_0" intLanes="" shape="510.00,1010.00 513.20,1010.00 510.00,1010.00"/>

    <connection from="1i" to="2o" fromLane="0" toLane="0" via=":0_3_0" tl="0" linkIndex="3" dir="s" state="o"/>
    <connection from="2i" to="1o" fromLane="0" toLane="0" via=":0_1_0" tl="0" linkIndex="1" dir="s" state="o"/>
    <connection from="3i" to="4o" fromLane="0" toLane="0" via=":0_2_0" tl="0" linkIndex="2" dir="s" state="O"/>
    <connection from="4i" to="3o" fromLane="0" toLane="0" via=":0_0_0" tl="0" linkIndex="0" dir="s" state="O"/>

    <connection from=":0_0" to="3o" fromLane="0" toLane="0" dir="s" state="M"/>
    <connection from=":0_1" to="1o" fromLane="0" toLane="0" dir="s" state="M"/>
    <connection from=":0_2" to="4o" fromLane="0" toLane="0" dir="s" state="M"/>
    <connection from=":0_3" to="2o" fromLane="0" toLane="0" dir="s" state="M"/>

</net>
